! pbe def2-sv(p) def2/J RI DEFGRID1 loosescf d4 GCP(DFT/SV(P)) printgap
%output
    printlevel normal
end
* xyz 0 1
C 0.6440979354 1.4191575181 -9.90105e-05
C 0.5173764857 -0.0748769789 -8.65183e-05
C 1.5898989065 -0.865480197 0.0001962884
C -0.8189622713 -0.6554431406 -0.0003391383
C -1.9619157 0.0206732272 0.0002780063
H 0.1630401587 1.8392966347 -0.882169363
H 1.6898722806 1.7148226739 0.0004909703
H 0.1619930348 1.8395415525 0.8812761447
H 1.5035568021 -1.9392149787 0.0004655067
H 2.5909618685 -0.4686916508 0.0005409456
H -0.8444630513 -1.738180919 -0.0009438835
H -2.91250565 -0.4853467374 1.61661e-05
H -2.0008528284 1.096440474 0.0009237927
*
