! pbe def2-sv(p) def2/J RI DEFGRID1 loosescf d4 GCP(DFT/SV(P)) printgap
%output
    printlevel normal
end
* xyz 0 1
C -2.0693031505 -1.3893227933 -0.0528246531
C -0.9649405349 -0.5355110091 0.5987665276
H -1.3388807193 -0.1515397264 1.5604150839
C -0.6214233357 0.6673221146 -0.291229857
H -0.5087608783 0.3419062168 -1.3356018915
C 0.7113287746 1.2683685329 0.1699387085
H 0.6244514544 1.5089062329 1.2458699791
C 1.8315132619 0.2324014232 -0.0246538441
H 2.2722568037 0.3836784762 -1.0136800215
C 1.2604977989 -1.2057423583 0.0325804391
H 2.0289558557 -1.8583601006 0.4755622177
O 0.1716603069 -1.3254458204 0.9164443237
O 0.9355366871 -1.6144510254 -1.2598081891
O 2.8769961013 0.385353979 0.8914835152
O 1.0184164703 2.4245004953 -0.5544699621
O -1.611605609 1.6648249162 -0.194217386
O -3.2769742584 -0.6706002738 -0.1597092856
H -2.2002644782 -2.3121205438 0.5256342799
H -1.7831756938 -1.6492200351 -1.0747074819
H 0.6996016155 -2.5501747284 -1.2501221864
H 2.5198473484 0.3608076523 1.7878151205
H 0.2084023572 2.9491304596 -0.6082039694
H -2.4495904277 1.2665348133 -0.4715726347
H -3.6427459306 -0.5377890398 0.7226647008
*
