! pbe def2-sv(p) def2/J RI DEFGRID1 loosescf d4 GCP(DFT/SV(P)) printgap
%output
    printlevel normal
end
* xyz 0 1
C -2.0498724804 -1.3974173167 -0.1300913622
C -1.0155906835 -0.5096702326 0.5823405163
H -1.4741913013 -0.1346409063 1.506692566
C -0.6362453637 0.695775011 -0.2857661567
H -0.487689515 0.3764593712 -1.3285020809
C 0.700379273 1.2415840848 0.240368932
H 0.6529859836 1.331156448 1.3348957772
C 1.7738524918 0.2125671541 -0.1265534988
H 1.9787834069 0.3015176158 -1.2038998056
C 1.2344796506 -1.2089563551 0.1325777624
H 2.0118516779 -1.7684626409 0.6726177556
O 0.131793012 -1.2391684802 0.9948084241
O 0.9491496358 -1.7862690647 -1.1067382396
O 2.9468381258 0.3865103547 0.6185821522
O 1.0492457421 2.4797207638 -0.3421556846
O -1.6820364482 1.6434696784 -0.2188057033
O -3.3106300357 -0.7853958254 -0.1690966778
H -2.1668317926 -2.3312286556 0.4262871551
H -1.6974742997 -1.6304555 -1.1468579256
H 0.6750044849 -2.7016261806 -0.9702278386
H 3.2515634012 1.2917643241 0.4791020813
H 0.49071115 3.1667645184 0.0389358811
H -1.4736685008 2.3629315976 -0.8273028732
H -3.1836278655 0.1550874364 -0.3555856484
*
