! pbe def2-sv(p) def2/J RI DEFGRID1 loosescf d4 GCP(DFT/SV(P)) printgap
%output
    printlevel normal
end
* xyz 0 1
C -2.3306488638 -0.8470070853 -0.2338402927
O -0.9331944187 -0.5869104104 -0.1756488699
C -0.5543036049 0.6765264818 -0.0625868705
O -1.2960063488 1.6214109018 -0.0184222539
C 0.9563388652 0.8371248095 -0.0244056949
Cl 1.816135374 -0.6933584371 0.2228451689
H -2.4548087923 -1.7520770773 -0.8240012068
H -2.8515581663 -0.0059426837 -0.6946394875
H -2.7156527242 -1.0013534464 0.7756111518
H 1.2215251024 1.5208312488 0.7829365721
H 1.2870560804 1.2615461751 -0.9745084553
*
