! pbe def2-sv(p) def2/J RI DEFGRID1 loosescf d4 GCP(DFT/SV(P)) printgap
%output
    printlevel normal
end
* xyz 0 1
C -2.2197350845 -0.982178279 -0.0576732505
C -1.0936256184 -0.353475775 0.8000151642
H -1.5099231736 -0.301902398 1.818207103
C -0.7308904451 1.0949513304 0.3973361817
H -1.5532315376 1.4994523689 -0.209496603
C 0.5568036671 1.2613554139 -0.4319001683
H 0.8888914541 2.2953856815 -0.2589230001
C 1.6627775135 0.308405911 0.0612235352
H 2.5133380178 0.3360877096 -0.6311203474
C 1.0954795119 -1.1262553267 0.0675549387
H 1.829149256 -1.8255743646 0.485141576
O 0.0129249418 -1.2290991287 0.9585038087
O 0.8060188885 -1.5535002072 -1.2252975624
O 2.1568962327 0.6953395453 1.3084706473
O 0.2530934336 1.0546906103 -1.7967720122
O -0.5222845534 1.8884334004 1.552032273
O -1.9608817803 -1.0940165536 -1.4237992171
H -3.1100856425 -0.3536969756 0.0334589277
H -2.4381244681 -1.9659031485 0.381450636
H 0.4253188243 -0.7993304307 -1.7179716664
H 1.4082698392 0.8371634833 1.904889785
H 0.9661800899 1.4100059588 -2.3383222197
H -1.340885194 1.9487537454 2.0559591129
H -1.2275437449 -1.7167901649 -1.541590643
*
