! pbe def2-sv(p) def2/J RI DEFGRID1 loosescf d4 GCP(DFT/SV(P)) printgap
%output
    printlevel normal
end
* xyz 0 1
C 3.057086022 0.0772726879 -0.2614256634
C 1.9492338182 -0.1508070228 0.7662166012
H 2.4326343255 -0.2923081902 1.7418490429
C 1.131077659 -1.4068746378 0.4546213785
C 0.2199339459 -1.2040591055 -0.7509316734
C -0.7823096603 -0.0646533737 -0.5356663074
H -1.3100252588 0.0927453497 -1.483270418
C 0.0228006245 1.219618011 -0.2714143055
H -0.6668103083 2.0365729128 -0.0010502482
C 1.0168731167 1.0603557456 0.8865892225
O 0.652539516 1.5668077046 -1.4920783167
C -1.8444488957 -0.3386587363 0.5479676768
C -2.9631036047 0.7042056848 0.4968737391
C -2.4726888191 -1.7241109525 0.3868768003
H 3.6599402138 0.9396443096 0.0185961476
H 3.7101446052 -0.7918421804 -0.3067128131
H 2.6444249601 0.2519002359 -1.2497940144
H 1.8097276524 -2.2411638121 0.2627680051
H 0.5292495078 -1.6666447021 1.328055248
H 0.8241144941 -0.9461703663 -1.6208885614
H -0.302809059 -2.1310070784 -0.9839474102
H 1.6154601626 1.9736257932 0.9662528099
H 0.4389688456 0.9733756332 1.8088041614
H 1.2310963538 2.3200025327 -1.3325971759
H -1.3757538519 -0.2892058964 1.5354599174
H -3.441601121 0.6953523707 -0.4800943
H -2.5920092857 1.7072329257 0.6874189858
H -3.7170776913 0.4808362169 1.2489392818
H -2.8440812725 -1.8569448415 -0.6269491068
H -3.3106027356 -1.8311883731 1.0728814534
H -1.7621858996 -2.5157325421 0.6060156875
*
