! pbe def2-sv(p) def2/J RI DEFGRID1 loosescf d4 GCP(DFT/SV(P)) printgap
%output
    printlevel normal
end
* xyz 0 1
C 3.2371502774 -0.1146921342 1.0141854284
C 1.9085248319 -0.109907932 0.3324044627
C 1.3406194452 1.0122515822 -0.1210725341
C 0.0353170156 1.0628615777 -0.7793527311
O -0.3736662654 2.0677037515 -1.3239706886
C -0.7859773087 -0.2141152801 -0.6971238999
H -1.5236120054 -0.1985023797 -1.5063969583
C 0.1553832117 -1.4037795645 -0.8934837694
C 1.2420582063 -1.4419930331 0.1762258903
C -1.557078787 -0.216364157 0.6429634519
C -2.5864457554 0.9130911337 0.6498439593
C -2.2682203862 -1.5470756941 0.8868491694
H 3.5986679275 0.8956614253 1.1841845299
H 3.9667348227 -0.6489068666 0.4053148274
H 3.1671904884 -0.6334107643 1.9697791745
H 1.8490731863 1.9628657288 -0.0331287469
H -0.4049367187 -2.339205575 -0.8991087773
H 0.6306658473 -1.2997335102 -1.8729264698
H 0.8128396014 -1.7307227013 1.1409255188
H 1.9905860671 -2.1976896756 -0.0760911278
H -0.8451790264 -0.0391777808 1.4569294246
H -2.12228563 1.868131724 0.4202518109
H -3.0612843714 0.9868613775 1.6259119221
H -3.357362891 0.7238508244 -0.0942279997
H -2.899117798 -1.8006244833 0.0375706036
H -2.9007739507 -1.4673544268 1.7683460773
H -1.5656242439 -2.3593327526 1.0528206433
*
