! pbe def2-sv(p) def2/J RI DEFGRID1 loosescf d4 GCP(DFT/SV(P)) printgap
%output
    printlevel normal
end
* xyz 0 1
C -2.2385338226 -0.987818798 -0.3859158379
C -1.179279362 -0.1944554411 0.3889381144
H -1.6508354119 0.2426716518 1.2770696358
C -0.584208068 0.9392786631 -0.4479479063
H -0.4103786942 0.6000959991 -1.4816469675
C 0.7690049501 1.3268421035 0.1596487672
H 0.6248003473 1.5356431813 1.2349317491
C 1.7498815841 0.1553339658 0.0056116502
H 2.1872755966 0.1832547443 -0.9976193875
C 0.9998772121 -1.1888616414 0.1448839847
H 1.6264366917 -1.8827383368 0.7310356268
O -0.176273249 -1.0800883276 0.9004247148
O 0.776147303 -1.6809178007 -1.1387202919
O 2.8269066192 0.2656273108 0.8989689828
O 1.2268606301 2.4869933169 -0.4921425491
O -1.4814422416 2.0139381539 -0.4316034258
O -2.7763021972 -2.0192301561 0.400044058
H -1.791659658 -1.3955389721 -1.3048269441
H -3.0568967983 -0.3190253777 -0.6576033571
H 0.3425077545 -2.5422173781 -1.0852615076
H 2.4995353573 0.1785766934 1.8029322881
H 2.1538205999 2.617747097 -0.2614252398
H -0.9973747112 2.788273041 -0.7485100758
H -2.0527855788 -2.3892682805 0.9228079885
*
