! r2scan-3c def2/J RI DEFGRID2 scfconv6 printgap
%output
    printlevel normal
end
* xyz 0 1
C -2.11258929 -0.9161132708 -0.3379950553
C -1.1977538298 -0.3501557088 0.769903361
H -1.7908522401 -0.404145418 1.6953328661
C -0.7727100104 1.1178692254 0.5795518644
H -1.6433539505 1.691147078 0.2251423611
C 0.3774637231 1.3074337208 -0.4305676739
H 0.8043260726 2.3010762833 -0.2369709597
C 1.5107030128 0.3000710065 -0.1238840008
H 2.1562915299 0.2169823243 -1.0042805485
C 1.0299766327 -1.125892896 0.2231196686
H 1.8297902602 -1.5929322917 0.8163449013
O -0.0886672995 -1.1914023952 1.0628676382
O 0.8301842463 -1.8624111056 -0.9644579076
O 2.3070427057 0.7772023912 0.9277900673
O -0.0393516099 1.3354694001 -1.7564616772
O -0.2952817525 1.6447371432 1.8028738593
O -1.5921148506 -0.8904276225 -1.638425981
H -3.0302442004 -0.3230366714 -0.364402143
H -2.3698376446 -1.9457637961 -0.0518137662
H 0.7550586602 -2.7990729587 -0.7446758822
H 1.7148659033 1.0867891333 1.6297106486
H -0.6414231875 0.5867163647 -1.9346951506
H -0.9701784854 1.5525034095 2.4848761759
H -0.7400095382 -1.375330761 -1.6378295885
*
