! r2scan-3c def2/J RI DEFGRID2 scfconv6 printgap
%output
    printlevel normal
end
* xyz 0 1
C -2.3037761154 0.1867522234 0.2833486115
C -0.9547210024 0.3248465868 -0.4166904278
C 0.0007344668 -0.7463202383 0.0130424373
C 1.3070203114 -0.598351065 0.1711247573
C 2.0635704035 0.6758165395 -0.0536382181
H -2.7560424932 -0.7767026668 0.0570186471
H -2.9850099951 0.9706150788 -0.0409807504
H -2.1799281626 0.2625343087 1.361708095
H -1.1056741944 0.2523613944 -1.4994967919
H -0.5337166661 1.3091998351 -0.2073191368
H -0.4493787642 -1.713860292 0.1935706935
H 1.8972150281 -1.4460756841 0.4921937127
H 3.1345456213 0.4924392548 -0.0444525479
H 1.8363313457 1.3992522317 0.7304243077
H 1.7971023959 1.1242332245 -1.0091460206
*
