! r2scan-3c def2/J RI DEFGRID2 scfconv6 printgap
%output
    printlevel normal
end
* xyz 0 1
C 3.7196422108 -0.3295202084 -0.1504958252
C 2.2778959382 -0.2040112833 0.333905168
H 2.2860641551 -0.0261563366 1.4151916863
C 1.4893971487 -1.4834057615 0.058999504
C 0.0449799201 -1.3505877612 0.5349174295
C -0.6595998065 -0.190240478 -0.1716180877
H -0.5888484668 -0.3772293335 -1.2508357759
C 0.12311672 1.104402027 0.12092936
H 0.1002814903 1.300797677 1.1989463033
C 1.5763515158 0.971035191 -0.3433531865
O -0.4871250692 2.2397029775 -0.4555225356
C -2.1593973112 -0.0009336984 0.1832587753
C -3.0067100518 0.0061411129 -1.0903442125
C -2.7308482458 -1.0315491047 1.1553259666
H 3.7466832922 -0.5086773634 -1.2235177075
H 4.2745122519 0.5821102446 0.0589312292
H 4.2187710896 -1.1578538807 0.3471958325
H 1.5045360903 -1.6923651311 -1.0137262543
H 1.9643763019 -2.3252585132 0.5675128711
H -0.4829123531 -2.2832216852 0.3345162453
H 0.0432402161 -1.182934475 1.61310881
H 1.5898462123 0.8246107577 -1.4282679614
H 2.1026979871 1.9030534389 -0.1262624489
H -0.4788640379 2.1309122521 -1.4134011313
H -2.2594736269 0.9840128943 0.6515908268
H -4.0529488256 0.1805274228 -0.8487024499
H -2.930453788 -0.9505580957 -1.6047601096
H -2.6829623454 0.7934684893 -1.7672639836
H -2.1799311869 -1.0473648496 2.0911421599
H -2.7194189512 -2.0296044101 0.7238915034
H -3.7644034984 -0.7758431404 1.3798812897
*
