! pbe def2-sv(p) def2/J RI DEFGRID1 loosescf d4 GCP(DFT/SV(P)) printgap
%output
    printlevel normal
end
* xyz 0 1
C -2.5076389486 -0.695597906 -0.0255232732
C -1.1393318159 -0.4604939181 0.6300944919
H -1.1710542919 -0.7895338721 1.6806979632
C -0.7201110223 1.0380825802 0.6284849703
H -1.5981152989 1.6482796645 0.3828581028
C 0.3654914549 1.2788265006 -0.4265059325
H 0.7286421409 2.3118270628 -0.3272565843
C 1.5728297067 0.356967023 -0.1322410791
H 2.1706374197 0.2912464352 -1.0525335954
C 1.106520526 -1.0698906994 0.264302141
H 1.2210582604 -1.1898086997 1.3562295544
O -0.2340348728 -1.2749584003 -0.100481526
O 1.8767477291 -2.059869776 -0.3191633304
O 2.3199990298 0.9459849611 0.9116644274
O -0.0908684794 1.1022886301 -1.7377412103
O -0.2991339725 1.4455474715 1.9035390455
O -2.444399654 -0.478367916 -1.4150736195
H -3.2405526869 0.0059264417 0.3748659785
H -2.8366264609 -1.7189745926 0.1863178356
H 1.6247903521 -2.1317687093 -1.2482044514
H 3.1311422148 0.4417858382 1.0411648858
H -0.9640168349 0.6704474456 -1.7266539062
H 0.6651746979 1.3650752924 1.9556068091
H -1.8849178555 -1.172228217 -1.787707616
*
