  13
        -13.91920885
 C         -1.9483202593        0.1414480145       -0.0002559898
 C         -0.5807201211       -0.5282854246        0.0003075126
 C          0.5582286282        0.5006308450        0.0002606461
 N          1.8949222535       -0.0665329752       -0.0003211457
 H         -2.7403110406       -0.6039810206        0.0009617143
 H         -2.0645708384        0.7688087637        0.8807299153
 H         -2.0651683668        0.7666081203       -0.8827432757
 H         -0.4859844595       -1.1669495024       -0.8828020192
 H         -0.4864559028       -1.1666747368        0.8836815317
 H          0.4722248136        1.1388449743       -0.8838635518
 H          0.4726907591        1.1382199206        0.8848523928
 H          2.0255367368       -0.6526388619        0.8182077689
 H          2.0243474845       -0.6536946703       -0.8182816131
  13
        -13.91855192
 C         -1.5900997156        0.1456827918       -0.5045209001
 C         -0.6710424957       -0.4923575650        0.5314263494
 C          0.6890496263        0.2171090676        0.6334745200
 N          1.5331389130        0.1317613969       -0.5437201428
 H         -1.1633147791        0.0756112994       -1.5035306827
 H         -2.5549835027       -0.3560401607       -0.5169843534
 H         -1.7515388730        1.1965533641       -0.2725931612
 H         -0.5075234437       -1.5434998574        0.2770907101
 H         -1.1523068676       -0.4586533021        1.5107816518
 H          0.5297643629        1.2779411504        0.8461002398
 H          1.2528263809       -0.2129567563        1.4668222086
 H          1.6965234992       -0.8403242783       -0.7860147423
 H          1.0790552829        0.5743076545       -1.3352931492
  13
        -13.91731406
 C         -1.9451186785        0.0995590807        0.0384760823
 C         -0.5600155193       -0.5311191192       -0.0123732759
 C          0.5449922005        0.5224252761       -0.0174351407
 N          1.8475238655       -0.1232310037        0.0403474984
 H         -2.1022574235        0.7483487518       -0.8210061679
 H         -2.7139986052       -0.6691848743        0.0331903756
 H         -2.0600452657        0.6950033438        0.9414201970
 H         -0.4700344032       -1.1469328783       -0.9107430600
 H         -0.4118235082       -1.1804855778        0.8513990520
 H          0.4203063780        1.1728025796       -0.9015356697
 H          0.4524321892        1.1510007470        0.8732842109
 H          2.5874866482        0.5702581051        0.0462760769
 H          1.9817845737       -0.7111075166       -0.7762820767
  13
        -13.91726079
 C         -1.5458151808        0.1240014297        0.5466257936
 C         -0.6700444311       -0.4781700669       -0.5439958469
 C          0.6707378280        0.2463990082       -0.6520961219
 N          1.4186716007        0.1079625943        0.5879853590
 H         -2.4624074888       -0.4494282013        0.6633263715
 H         -1.0054296739        0.1260331095        1.4888831245
 H         -1.8076494663        1.1498001253        0.2986637815
 H         -1.1805048207       -0.4227829196       -1.5077354250
 H         -0.4853891187       -1.5323379759       -0.3226976598
 H          1.2173540458       -0.1398120809       -1.5311524794
 H          0.4950786074        1.3143592644       -0.8106378567
 H          1.6283388148       -0.8703456388        0.7601753419
 H          2.2984464225        0.6084426291        0.5295880404
  13
        -13.91650292
 C         -1.6044783188        0.0907741376        0.5063988101
 C         -0.6453520092       -0.4964513537       -0.5231307021
 C          0.6679539017        0.2800751053       -0.6251301909
 N          1.4991804952        0.0439967099        0.5454231766
 H         -1.8143487486        1.1352207076        0.2820145882
 H         -2.5445572530       -0.4558634318        0.4998939547
 H         -1.1865874860        0.0280022256        1.5082880833
 H         -1.1259292379       -0.4923521400       -1.5035794378
 H         -0.4127233644       -1.5289580184       -0.2601832077
 H          1.2280119822       -0.0795886009       -1.4935444203
 H          0.4423586217        1.3487215809       -0.7900086727
 H          1.0437919944        0.4055710858        1.3765822498
 H          2.3869954115        0.5246104517        0.4498162256
  13
        -13.91238066
 C         -1.4967427343        0.5235239981       -0.0322656831
 C         -0.7129083979       -0.7843516068        0.0343768165
 C          0.8352022893       -0.6094707678        0.0394538689
 N          1.3601021705        0.7387831115       -0.0343637776
 H         -2.5633307403        0.3102816514       -0.0294710323
 H         -1.2797041665        1.1580109086        0.8251440476
 H         -1.2678690555        1.0749060371       -0.9424424714
 H         -0.9992463161       -1.4014712804       -0.8191108520
 H         -1.0132995148       -1.3206417319        0.9362510683
 H          1.2439712293       -1.0525270538        0.9514281157
 H          1.2609274214       -1.1555527999       -0.8065089173
 H          1.0410880171        1.2932342799        0.7518798570
 H          1.0553498010        1.1981754982       -0.8849435218
