! pbe def2-sv(p) def2/J RI DEFGRID1 loosescf d4 GCP(DFT/SV(P)) printgap
%output
    printlevel normal
end
* xyz 0 1
C -2.369929236 -1.1858711891 -0.3564758272
C -1.0659939684 -0.6394147 0.2327478526
H -1.141582472 -0.6385678714 1.3331922395
C -0.785213596 0.7989305427 -0.2315089061
H -0.8270520814 0.8295158557 -1.3339036212
C 0.6219918955 1.2384355601 0.2070040906
H 0.6256484901 1.3022755977 1.3117246525
C 1.6646857772 0.2017508191 -0.2300119034
H 1.6920195504 0.1589339499 -1.3248312747
C 1.2323596474 -1.1815110461 0.317659417
H 1.199737522 -1.1499488195 1.4205174471
O -0.0483086745 -1.514535116 -0.1910105451
O 2.1089287764 -2.1881579906 -0.0046141677
O 2.9658799671 0.5228031892 0.1614528591
O 0.9405561192 2.4868350999 -0.3422719676
O -1.6900958143 1.7245567346 0.3176823613
O -3.4531084552 -0.4064630491 0.1072496138
H -2.4699428356 -2.2318805893 -0.0458017127
H -2.3025328249 -1.1516107474 -1.45155381
H 2.2021693365 -2.2325844988 -0.9644249722
H 2.9757583392 0.7509165785 1.098114257
H 0.1809036433 3.0643106084 -0.1932532676
H -2.5702348394 1.3210057079 0.308865525
H -4.275894436 -0.7958970963 -0.2063601279
*
