! r2scan-3c def2/J RI DEFGRID2 scfconv6 printgap
%output
    printlevel normal
end
* xyz 0 1
C -2.81150641 1.0420546193 5.70409e-05
O -2.2170529348 -0.2331016246 -3.92579e-05
C -0.8590391022 -0.3165060608 -2.69975e-05
C -0.3283034926 -1.6089379463 -6.108e-06
C 1.0368734217 -1.7933023957 2.07393e-05
C 1.8981630398 -0.70776444 2.60776e-05
C 1.3731069948 0.5757553552 -3.8092e-06
C -0.0040752979 0.7755802436 -3.23622e-05
O 2.1660355013 1.6834307055 -4.8773e-06
H -2.5380300633 1.6127482082 -0.8931675064
H -2.5378591818 1.6126905559 0.8932649737
H -3.8861844848 0.8663644883 0.0001535031
H -1.0086280362 -2.4446912898 -1.0661e-05
H 1.4421067076 -2.7939072165 3.53283e-05
H 2.9693989089 -0.8559910494 5.08383e-05
H -0.361320847 1.7918108668 -6.00964e-05
H 3.0931145493 1.4168656279 2.21278e-05
*
