! r2scan-3c def2/J RI DEFGRID2 scfconv6 printgap
%output
    printlevel normal
end
* xyz 0 1
C -2.1944439346 -0.9006998344 -0.1740986554
C -1.1341988133 -0.3354648034 0.7988622379
H -1.6181197923 -0.3350717559 1.7873592568
C -0.7319315878 1.122208169 0.4859506476
H -1.5881994728 1.6259871855 0.0098470586
C 0.4765208184 1.2425578614 -0.4700143195
H 0.813724011 2.2874694826 -0.4193458986
C 1.6110549394 0.3296593057 0.0119294311
H 2.4105844997 0.3125216462 -0.7388745308
C 1.0699331944 -1.1178017873 0.1348337543
H 1.8353151325 -1.7347695412 0.6269291394
O -0.0338183728 -1.2134690325 0.987310118
O 0.8486383492 -1.6370545045 -1.1500475318
O 2.1925491041 0.7797934406 1.1979603617
O 0.0862588142 0.9615300948 -1.796361911
O -0.3639472341 1.8066442357 1.6662463328
O -1.7811491276 -1.024289756 -1.5071769287
H -3.0905245463 -0.2682353823 -0.1028130656
H -2.4520762134 -1.910989399 0.1537866799
H -0.1136003946 -1.7508537133 -1.2930471654
H 1.4857764944 1.0394412678 1.8076559084
H 0.5953768388 0.1947792531 -2.1060067601
H -1.1082417698 1.8297200481 2.2777692845
H -1.4652991279 -0.158854868 -1.8300954494
*
