! r2scan-3c def2/J RI DEFGRID2 scfconv6 printgap
%output
    printlevel normal
end
* xyz 0 1
C -2.5676124196 -0.7218527863 -0.2884405917
C -1.1941946337 -0.2872160525 0.2418636054
H -1.2242388306 -0.2389497098 1.3424286371
C -0.742431977 1.0774124793 -0.3036814289
H -0.7523169787 1.043367179 -1.405007424
C 0.6918166675 1.345869835 0.1682352572
H 0.6766023468 1.4504222134 1.2653706643
C 1.6154627299 0.1812209116 -0.2059268886
H 1.6663419627 0.1213124347 -1.3079669577
C 1.0263667918 -1.1381625275 0.3282343447
H 1.0213050625 -1.1133304722 1.4284011053
O -0.2912005895 -1.29334038 -0.1701962241
O 1.7483193845 -2.248250133 -0.0280901607
O 2.8914487098 0.3610835227 0.3359943587
O 1.2187550333 2.5119667666 -0.4162158582
O -1.5242364318 2.1511133537 0.1655906927
O -2.9419498004 -1.9627577987 0.2318054557
H -2.521961262 -0.7567600317 -1.387694361
H -3.3410391987 -0.0143072016 0.0204689377
H 1.8313446356 -2.2822751826 -0.9895412992
H 3.1632429388 1.2657668155 0.1328998564
H 0.5770258107 3.2184932675 -0.2749061889
H -2.436133278 2.0388221694 -0.1213239194
H -2.1898186072 -2.5593555271 0.1212626592
*
