! pbe def2-sv(p) def2/J RI DEFGRID1 loosescf d4 GCP(DFT/SV(P)) printgap
%output
    printlevel normal
end
* xyz 0 1
C -2.3272102823 0.8769848088 0.2792193501
C -1.9165718982 -0.5141847701 -0.220657855
C -0.6295014705 -1.0109053024 0.4116172471
Br 0.8944540139 0.1107514168 -0.0897314935
H -3.2913574498 0.8457323748 0.7795515646
H -1.5981953643 1.2677018413 0.9854523693
H -2.3969489589 1.5835230088 -0.5431369265
H -1.7982999537 -0.5061398767 -1.305963443
H -2.6933196015 -1.2459407222 0.0161065966
H -0.3801816307 -2.0180459378 0.079000449
H -0.6777359303 -0.9835713192 1.4996436076
*
