! pbe def2-sv(p) def2/J RI DEFGRID1 loosescf d4 GCP(DFT/SV(P)) printgap
%output
    printlevel normal
end
* xyz 0 1
C -1.8976450891 -1.1089981237 -0.4698027814
C -1.0593181066 -0.5132514506 0.7021738066
H -1.6260752519 -0.5948349609 1.6354364905
C -0.7510243617 0.9782516648 0.5127171572
H -1.6587922069 1.4608395005 0.1252760653
C 0.4073838052 1.1882976216 -0.4896493897
H 0.6659258093 2.2566842345 -0.5125347557
C 1.6310597001 0.3922338454 -0.0069166656
H 2.4190021347 0.4352426225 -0.7675171414
C 1.2379510269 -1.0895200625 0.1731893371
H 2.0425519323 -1.5916556628 0.7318149683
O 0.1049845692 -1.2914154152 0.9646326092
O 1.1138508732 -1.6520258674 -1.1149213039
O 2.1776745968 0.9123747877 1.1670332612
O 0.0236710725 0.8285259545 -1.7954331431
O -0.4284858073 1.5098433148 1.7844782483
O -2.5705532704 -0.1635066835 -1.2513050329
H -2.6696037737 -1.7592896869 -0.0526105047
H -1.2394047623 -1.7251949638 -1.0935957013
H 0.9820087284 -2.6040833615 -1.0324586412
H 1.4751771463 0.9269932909 1.8394655262
H 0.3366362233 -0.0748583374 -1.9618533697
H -0.3585349201 2.4690378488 1.7168992265
H -1.910865495 0.3416192629 -1.7564875825
*
