! r2scan-3c def2/J RI DEFGRID2 scfconv6 printgap
%output
    printlevel normal
end
* xyz 0 1
C -2.6689073601 -1.435366472 -0.0755458654
C -1.9577848263 -0.0908326832 0.0125009018
C -0.4516615069 -0.141634304 -0.0054586979
C 0.2486197306 -1.3363282114 -0.096207549
C 1.6327848723 -1.3586014636 -0.1112099269
C 2.3417263751 -0.1752500513 -0.0347823379
C 1.6552285925 1.0222927458 0.0560068117
C 0.2684627079 1.0575309687 0.0718346998
C -0.4385834949 2.3758036678 0.171091946
H -2.4036735647 -2.0729347969 0.7647803193
H -2.4198108178 -1.9487308003 -1.0014991041
H -3.7458061508 -1.2794929504 -0.0547504212
H -2.2739621159 0.4128958225 0.9317563803
H -2.2908394315 0.5366340694 -0.8206215334
H -0.2840205086 -2.2719926799 -0.1571179253
H 2.153625721 -2.3024224884 -0.1826246055
H 3.4217807181 -0.1817841428 -0.0453685443
H 2.2072102063 1.9500735436 0.1162671327
H -1.0818661293 2.5359388166 -0.6939843659
H -1.0669594906 2.4119649336 1.0608192356
H 0.2780711222 3.1916304954 0.2226050494
*
