! pbe def2-sv(p) def2/J RI DEFGRID1 loosescf d4 GCP(DFT/SV(P)) printgap
%output
    printlevel normal
end
* xyz 0 1
C -2.1664220521 -1.2309410733 0.0303202614
C -1.1703184489 -0.356569171 0.8125409644
H -1.6571359514 -0.1047355662 1.7635713333
C -0.8669716467 0.9616223556 0.0579666727
H -1.0747421112 0.8279874504 -1.01068832
C 0.6170869984 1.2879861494 0.2435616603
H 0.8529802926 1.367234931 1.3125040385
C 1.4475854875 0.1434913609 -0.357600785
H 1.2454658231 0.0907094559 -1.4432604766
C 1.0410217582 -1.2075940484 0.2844025284
H 1.8868529325 -1.56813356 0.8800427803
O -0.0035037028 -1.0446393866 1.2205444398
O 0.7788211616 -2.1861984135 -0.6540331108
O 2.8151289468 0.360089192 -0.1385129763
O 0.9834573694 2.5262281739 -0.3142268206
O -1.7097738764 2.006912743 0.4637026539
O -1.7623412558 -1.3602749255 -1.3237462164
H -3.1493281654 -0.7480907269 0.0784392825
H -2.215184985 -2.2135981247 0.5131319117
H -0.0452045565 -1.9572740451 -1.1229518993
H 2.9827995229 1.3058110511 -0.2574868185
H 0.5765229665 2.6135562714 -1.1847158422
H -1.4275777954 2.324272783 1.3300710026
H -2.3803137038 -1.9429206845 -1.7775715761
*
