! pbe def2-sv(p) def2/J RI DEFGRID1 loosescf d4 GCP(DFT/SV(P)) printgap
%output
    printlevel normal
end
* xyz 0 1
C -1.8104075192 -0.99878578 -0.7116616495
C -1.0491947879 -0.4266281096 0.5048776846
H -1.7258918072 -0.5070120147 1.3662169008
C -0.6804911159 1.0609257016 0.3435846774
H -1.4971021329 1.588089707 -0.1629148279
C 0.6031913478 1.249053624 -0.4940488043
H 0.8951968343 2.3090250582 -0.3988649227
C 1.7320416621 0.3633339964 0.0699570395
H 2.5932627751 0.3857615829 -0.6196617903
C 1.2440301621 -1.1012686039 0.1504590289
H 1.9741398622 -1.688274964 0.7193330709
O 0.0671547452 -1.2123084971 0.8958896424
O 1.1795730619 -1.6704057259 -1.1147943435
O 2.1159611234 0.7610023473 1.3621425141
O 0.3298577156 0.935883722 -1.8439925469
O -0.530985811 1.6839157725 1.5899902206
O -3.1932329194 -0.7673256556 -0.6157041938
H -1.6889469185 -2.0841775304 -0.7147469367
H -1.4224241816 -0.5841434996 -1.6504532561
H 0.6137643076 -1.1230339716 -1.6802536088
H 2.4371043644 1.6707901709 1.3395253681
H 1.0812765319 1.1935065393 -2.390864353
H 0.1341989303 1.1840562471 2.0887184908
H -3.3585963344 0.1819174517 -0.6074609962
*
