! pbe def2-sv(p) def2/J RI DEFGRID1 loosescf d4 GCP(DFT/SV(P)) printgap
%output
    printlevel normal
end
* xyz 0 1
C -2.154369978 -1.1992533647 -0.1241022043
C -1.2379451357 -0.3440541271 0.7724017331
H -1.7763946838 -0.1277723524 1.7006605787
C -0.9017006928 1.0012772683 0.1062205126
H -1.1288208667 0.9463726769 -0.970724596
C 0.5955345534 1.2970204744 0.2533722703
H 0.8403846382 1.3872606791 1.3267133691
C 1.3810860802 0.1318208811 -0.3508593033
H 1.1189189635 0.0457410976 -1.41222344
C 1.0050021029 -1.1790485728 0.3835572498
H 1.8342185508 -1.4631770383 1.0547173043
O -0.0803582326 -1.0455985396 1.2289886158
O 0.7864029499 -2.2306407686 -0.5382743596
O 2.7677723129 0.3792295985 -0.3319356903
O 0.8864118928 2.5059077387 -0.4057694689
O -1.6778057289 1.9991355659 0.7147951017
O -1.6794457719 -1.3565926478 -1.4313385653
H -3.1158276256 -0.6877725737 -0.2044637183
H -2.3004162036 -2.1717930201 0.3633652867
H 1.6012929926 -2.4030350005 -1.0222782009
H 3.0574932189 0.5012471301 0.5812284538
H 1.8077580891 2.4745402021 -0.6950146312
H -1.3701800517 2.8487592107 0.3738991827
H -0.8500857246 -1.8591917161 -1.3761036661
*
