  17
        -16.83066081
 C         -2.0804975113        0.0097662043       -0.1316093819
 C         -0.7652156771        0.6376857033        0.3150684385
 C          0.4700103235        0.0010532654       -0.3316375751
 C          1.7123508806        0.8294476247       -0.0076802140
 C          0.6730582347       -1.4393798085        0.1321915769
 H         -2.9205466553        0.5572351723        0.2903696176
 H         -2.1543765561       -1.0240667643        0.1951893922
 H         -2.1658849123        0.0353746173       -1.2160907425
 H         -0.7815427473        1.6999786398        0.0586139714
 H         -0.6778318097        0.5630394916        1.4016430932
 H          0.3280090191        0.0002793609       -1.4186778308
 H          2.5933669737        0.3995007891       -0.4790289296
 H          1.8782069497        0.8570464902        1.0674495066
 H          1.5987786087        1.8513655600       -0.3630213067
 H          0.7719565632       -1.4773587258        1.2152971879
 H          1.5772705391       -1.8538001898       -0.3085710902
 H         -0.1630739695       -2.0682632307       -0.1611347650
  17
        -16.82951646
 C         -1.7280056026        0.3487984409        0.5883762391
 C         -0.8817505197        0.3411407928       -0.6798560313
 C          0.5842145487       -0.0710176002       -0.4817475600
 C          1.3317564158        0.8950236693        0.4350018665
 C          0.7115795848       -1.5017424075        0.0371684088
 H         -1.7681042035       -0.6397472299        1.0378184848
 H         -2.7453742772        0.6515855493        0.3492666659
 H         -1.3316170094        1.0487827940        1.3189433353
 H         -1.3367325405       -0.3424022834       -1.4013833534
 H         -0.9012674645        1.3410699908       -1.1209812555
 H          1.0576216419       -0.0293334564       -1.4708242260
 H          0.9608634260        0.8272433732        1.4545683672
 H          1.2149022348        1.9201860084        0.0902325422
 H          2.3931852396        0.6566741314        0.4464970907
 H          1.7549293567       -1.8100282238        0.0367156609
 H          0.1510582587       -2.1899802050       -0.5917845643
 H          0.3384816997       -1.5794706038        1.0552139693
  17
        -16.82778697
 C         -2.0609341479        0.4489763706       -0.3298438445
 C         -0.8259047159        0.2794986837        0.5476866861
 C          0.4180789432       -0.1472047087       -0.2583365122
 C          1.5160786602        0.9118514673       -0.1808674414
 C          0.9534914954       -1.4939899193        0.2240047880
 H         -2.9175719345        0.7520898695        0.2687903198
 H         -2.3065741940       -0.4863181227       -0.8285032588
 H         -1.8891983865        1.2085651130       -1.0895981114
 H         -0.6254774820        1.2219901921        1.0606309578
 H         -1.0393592857       -0.4659679431        1.3159944747
 H          0.1294892021       -0.2567406597       -1.3094228805
 H          1.1505146439        1.8701091625       -0.5435067690
 H          2.3720463890        0.6214921553       -0.7868095932
 H          1.8516237033        1.0362560185        0.8469450069
 H          1.2717413229       -1.4262880954        1.2625238668
 H          1.8071310964       -1.8037774664       -0.3755085650
 H          0.1859794708       -2.2610651236        0.1469602434
