! pbe def2-sv(p) def2/J RI DEFGRID1 loosescf d4 GCP(DFT/SV(P)) printgap
%output
    printlevel normal
end
* xyz 0 1
C -1.9840529479 -0.6354800235 -0.7694697543
C -1.2001612104 -0.1075274845 0.4441663998
H -1.8976634519 -0.0785821261 1.2946109415
C -0.6255746919 1.3017577025 0.239627042
H -1.3470772094 1.8847505473 -0.3512823779
C 0.7197199435 1.3048512944 -0.5252519646
H 1.1382002871 2.3139594995 -0.4208942009
C 1.6841577976 0.3034676161 0.1266251056
H 2.5696478844 0.1888588443 -0.5093038155
C 1.0069206748 -1.0814648795 0.2141460614
H 1.6266323002 -1.732046928 0.8496860504
O -0.2307485947 -1.0652537191 0.8699706191
O 0.9172588502 -1.5931725429 -1.0915444677
O 2.1335694427 0.7226548169 1.3793984012
O 0.546901207 1.0697169785 -1.8931535122
O -0.3788416551 1.9317520696 1.481922963
O -2.5263904383 -1.8995593337 -0.4807133692
H -1.3394871828 -0.6870762895 -1.6554362895
H -2.8213781168 0.0312199115 -0.9879236515
H 0.5678212431 -2.4923926369 -1.0681180148
H 1.3817038843 1.1059372859 1.8575017383
H 0.6362167037 0.1190268251 -2.0546866483
H -1.2040969101 2.0139643237 1.9730475116
H -1.8856060798 -2.36789208 0.0716343841
*
