! pbe def2-sv(p) def2/J RI DEFGRID1 loosescf d4 GCP(DFT/SV(P)) printgap
%output
    printlevel normal
end
* xyz 0 1
C -3.1064606257 -0.8994993363 0.1672808661
O -1.9385971723 -0.5188090632 -0.5464178226
C -1.0703870435 0.29672779 0.0714912783
O -1.2441302447 0.7346383776 1.1777111939
C 0.1039780627 0.6079066044 -0.8388704116
C 0.7907633134 -0.6816659805 -1.3066104386
C 1.5036106314 -1.3695408817 -0.1465061977
C 2.5326697365 -0.4296333773 0.4730366546
C 1.8512140222 0.8390427005 0.9741451443
C 1.1074071209 1.5416198849 -0.1589482317
H -2.9783372342 -1.9113256606 0.5565076697
H -3.9391112748 -0.8745120235 -0.5336400141
H -3.2797735035 -0.20875492 0.9947884711
H -0.3255402341 1.1085423927 -1.7152237666
H 0.0499965305 -1.3498211269 -1.7480204618
H 1.5213611106 -0.4265234219 -2.0777724142
H 0.7727385347 -1.6562593518 0.6131645532
H 1.9918034661 -2.2790471449 -0.503560778
H 3.0431180634 -0.9280444275 1.2994465103
H 3.2837730596 -0.1707412289 -0.2777542387
H 1.1406223963 0.585927866 1.7612917011
H 2.5928581767 1.5195218038 1.3972469276
H 0.5802887116 2.4112352372 0.2366199816
H 1.8239536351 1.8863374649 -0.9080691727
*
