! r2scan-3c def2/J RI DEFGRID2 scfconv6 printgap
%output
    printlevel normal
end
* xyz 0 1
C -1.6044783188 0.0907741376 0.5063988101
C -0.6453520092 -0.4964513537 -0.5231307021
C 0.6679539017 0.2800751053 -0.6251301909
N 1.4991804952 0.0439967099 0.5454231766
H -1.8143487486 1.1352207076 0.2820145882
H -2.544557253 -0.4558634318 0.4998939547
H -1.186587486 0.0280022256 1.5082880833
H -1.1259292379 -0.49235214 -1.5035794378
H -0.4127233644 -1.5289580184 -0.2601832077
H 1.2280119822 -0.0795886009 -1.4935444203
H 0.4423586217 1.3487215809 -0.7900086727
H 1.0437919944 0.4055710858 1.3765822498
H 2.3869954115 0.5246104517 0.4498162256
*
