! pbe def2-sv(p) def2/J RI DEFGRID1 loosescf d4 GCP(DFT/SV(P)) printgap
%output
    printlevel normal
end
* xyz 0 1
C -2.0842298948 -1.2047731106 -0.2276050806
C -1.2714591328 -0.3435121688 0.7597275893
H -1.8835966578 -0.1765620381 1.6513410086
C -0.9303489791 1.031768061 0.1612257709
H -1.2276970105 1.0448562937 -0.9023341035
C 0.5850176185 1.297231853 0.2314733335
H 0.8920109424 1.3906415401 1.2792961859
C 1.2925202298 0.1018217705 -0.4076799912
H 0.8735279915 -0.0600658833 -1.4156883558
C 0.9926770915 -1.142897199 0.4522960673
H 1.830535424 -1.2953484339 1.1517178587
O -0.1253906837 -1.0217216258 1.2722505704
O 0.895224206 -2.2488673927 -0.4194186782
O 2.6699541755 0.3515194243 -0.4901092928
O 0.8883928501 2.5264962685 -0.3719069697
O -1.6374624939 2.0217181179 0.8618319715
O -1.5120308857 -1.3087258975 -1.5029942722
H -3.0568797073 -0.7293807513 -0.3689983818
H -2.2356898888 -2.196903064 0.220017157
H 0.7038847197 -3.038575904 0.1022747991
H 3.1034535574 -0.4083348389 -0.8944971066
H 1.0260046525 2.3938308887 -1.3164087493
H -1.2013497502 2.8661651289 0.6823890875
H -0.6625182149 -1.7739687057 -1.4181594598
*
