! pbe def2-sv(p) def2/J RI DEFGRID1 loosescf d4 GCP(DFT/SV(P)) printgap
%output
    printlevel normal
end
* xyz 0 1
C -0.6995569354 -0.5897181266 -0.2633791029
C 0.7052256416 -0.5241887978 0.3393660494
O 1.4972231737 0.5102645487 -0.1766613855
O -1.4479891133 0.5134466146 0.1863531974
H -1.1698498282 -1.5338170922 0.0490369293
H -0.6255495186 -0.5877854031 -1.3633155879
H 1.1925857592 -1.4998963997 0.1846361273
H 0.6244984094 -0.3289612562 1.4099528499
H 1.4582643993 0.4893762254 -1.1396247646
H -2.3290436323 0.4849669347 -0.2000588948
*
