! pbe def2-sv(p) def2/J RI DEFGRID1 loosescf d4 GCP(DFT/SV(P)) printgap
%output
    printlevel normal
end
* xyz 0 1
C -2.5480264098 -0.9066316407 0.3099795327
C -1.1149968017 -0.4548752648 0.6340304845
H -0.9708536239 -0.4294423703 1.7281656432
C -0.8328587642 0.9395097007 0.0523868559
H -1.1162486063 0.941390768 -1.0063130335
C 0.6556043464 1.3161050591 0.1767502154
H 0.891196457 1.505207592 1.2404442062
C 1.5620759087 0.1799743551 -0.2998128448
H 1.4924333086 0.1189572764 -1.3984411656
C 1.1086437378 -1.1635431479 0.3126634006
H 1.3054210642 -1.1398938274 1.3981514878
O -0.249632162 -1.4162747752 0.0611160676
O 1.8546834119 -2.2149599704 -0.1934983668
O 2.8771943919 0.4453614631 0.1037636844
O 0.9204163461 2.4613657058 -0.5862155918
O -1.6287423894 1.9321171712 0.6519604596
O -2.722610506 -1.1159522384 -1.0609577331
H -3.248379943 -0.121318276 0.6005646245
H -2.7663360481 -1.8222114496 0.8768920217
H 1.5282674798 -2.4213053471 -1.0784352738
H 3.4088304314 -0.3432475048 -0.0673111601
H 0.2075198607 3.0941941816 -0.4258079158
H -1.4512426427 1.9536059455 1.6007611235
H -2.0316284374 -1.7248122422 -1.3497384465
*
