! r2scan-3c def2/J RI DEFGRID2 scfconv6 printgap
%output
    printlevel normal
end
* xyz 0 1
C -3.4748917206 0.3750763057 -3.04922e-05
C -2.7180039624 1.5355178469 -1.62019e-05
C -1.3376046794 1.4530399769 3.87124e-05
C -0.7250874198 0.214445006 6.79258e-05
C -1.4678318399 -0.963905349 1.83242e-05
C -2.8588351132 -0.8593584083 -2.52655e-05
O -0.9245044801 -2.195932372 1.08928e-05
I 1.4016868447 0.0998530903 -6.6965e-06
H -4.5524889165 0.4313047409 -2.2092e-05
H -3.1952549623 2.5027744999 -1.29833e-05
H -0.7379095238 2.3500326861 4.8003e-05
H -3.4285566188 -1.7747815467 -3.17397e-05
H 0.0445904371 -2.1354774289 5.74247e-05
*
