! r2scan-3c def2/J RI DEFGRID2 scfconv6 printgap
%output
    printlevel normal
end
* xyz 0 1
C -2.8032107957 -0.6799878227 -0.0421463497
O -1.4810278318 -0.8123931327 0.4748423691
C -0.5643678996 0.0704782154 0.0712225935
O -0.7573581449 0.959574874 -0.7057187581
C 0.7512057762 -0.2233966472 0.773930234
Cl 2.1170405379 0.2985955088 -0.230092994
H -3.0952894357 -1.6427859883 -0.4590178671
H -2.8262573964 0.0917953911 -0.8130702556
H -3.4703692499 -0.4113479222 0.7771609502
H 0.8443114944 -1.289555122 0.9750343709
H 0.7915271361 0.3380241086 1.709058205
*
