! pbe def2-sv(p) def2/J RI DEFGRID1 loosescf d4 GCP(DFT/SV(P)) printgap
%output
    printlevel normal
end
* xyz 0 1
C -3.0521166432 -0.6808935796 0.6332851458
C -1.9370741922 -0.5331420625 -0.4022277073
H -2.389681434 -0.6385667191 -1.3971900951
C -0.8334178163 -1.5834583152 -0.2403463429
C 0.1707377761 -1.1526433121 0.8257496486
C 0.8881097258 0.1633961897 0.4670527521
H 0.8932220377 0.8028166868 1.3553383003
C 0.1221243562 0.9232642126 -0.6381126084
C -1.3590114647 0.8710002977 -0.3664746821
O -2.0242637508 1.8519585922 -0.1471364395
C 2.3240818088 -0.0182309688 0.0238395675
C 2.7182732968 -1.0052286328 -0.7644703726
C 3.2730325311 1.0313628832 0.5163620503
H -2.6433250199 -0.6657990759 1.6407564553
H -3.7511321119 0.1459986981 0.5381312638
H -3.588172263 -1.6158136333 0.488636169
H -1.2833621623 -2.5365746938 0.0447737737
H -0.3195821736 -1.7368810672 -1.1904632966
H -0.3646789314 -1.0205336714 1.7678501279
H 0.9082835417 -1.9413299174 0.9802816346
H 0.4525468883 1.9617162974 -0.6807458992
H 0.3202263143 0.4531223394 -1.6028378489
H 3.743958998 -1.0995296728 -1.078334792
H 2.0461162577 -1.7631262878 -1.1274057527
H 2.9123769329 2.0234881096 0.2475460268
H 3.3468870919 0.9894431125 1.6029998661
H 4.2650518017 0.8934629965 0.0949622155
*
