! pbe def2-sv(p) def2/J RI DEFGRID1 loosescf d4 GCP(DFT/SV(P)) printgap
%output
    printlevel normal
end
* xyz 0 1
C -1.1955935805 -1.2006372141 0.0091602861
C 0.184559119 -1.2030695796 0.0021962082
C 0.8712198742 4.77089e-05 -0.0006058686
C 0.1845458374 1.2031203129 0.0021395434
C -1.1956450262 1.2005683729 0.0091412493
C -1.9086123085 -3.70483e-05 0.0113317446
N -3.2843264726 3.75534e-05 -0.0543686485
Cl 2.6045759423 -6.784e-06 -0.0030713054
H -1.7341055477 -2.13702057 0.010926535
H 0.7277070985 -2.1350420045 0.0020962527
H 0.7275602232 2.1351621669 0.0021364123
H -1.7341307224 2.136963027 0.0109039172
H -3.7507056117 -0.8488826159 0.2192977875
H -3.7506497549 0.848625496 0.2206450387
*
