! pbe def2-sv(p) def2/J RI DEFGRID1 loosescf d4 GCP(DFT/SV(P)) printgap
%output
    printlevel normal
end
* xyz 0 1
C -2.290957866 -0.9504156224 -0.2893260146
C -1.125442494 -0.236755884 0.4122050166
H -1.4924136075 0.1749547285 1.3645316214
C -0.5599563424 0.8975707661 -0.443177686
H -0.4268462061 0.5665180718 -1.4788138222
C 0.8021911152 1.3388222131 0.1119815559
H 0.6831668717 1.6490071953 1.1648720619
C 1.7968770677 0.17180348 0.0903713722
H 2.3870233863 0.2520854989 -0.8315304652
C 1.057780848 -1.1858793431 0.0488523638
H 1.6765733662 -1.9386228329 0.5672070005
O -0.1357713018 -1.200668818 0.7765184975
O 0.8736765762 -1.5311483264 -1.2920638731
O 2.6025922193 0.2762524951 1.234402152
O 1.3138600918 2.3999819252 -0.6481595957
O -1.4395831552 1.9923160528 -0.5131098141
O -2.8746387008 -1.9148719807 0.5434873657
H -1.9230777646 -1.4084587741 -1.2198329623
H -3.0688732249 -0.2261092699 -0.5390493199
H 0.4223915991 -2.3833173262 -1.3432797185
H 3.3860567672 -0.2745428823 1.1324610134
H 0.5621879814 2.9314293514 -0.9474067094
H -1.6405805745 2.2947223648 0.3821283022
H -2.1573944347 -2.4035182636 0.9676292202
*
