! r2scan-3c def2/J RI DEFGRID2 scfconv6 printgap
%output
    printlevel normal
end
* xyz 0 1
C -1.8202311789 -1.3479212936 -8.931e-07
C -0.4878877767 -1.7039358534 5.381e-07
C 0.5016075783 -0.7306327155 2.727e-06
C 0.1419469323 0.6122489838 4.3014e-06
C -1.1955053938 0.9751611069 1.8374e-06
C -2.1838155981 -0.0025986381 -9.152e-07
O -3.5004395888 0.3084032243 -2.027e-07
Cl 1.348915729 1.8405902466 -7.966e-07
Cl 2.1634953854 -1.1911488545 -1.1135e-06
H -2.5955102137 -2.0960757275 -3.13e-07
H -0.2030208588 -2.7436962474 4.949e-07
H -1.4584940697 2.0230458094 -1.621e-07
H -3.6192225985 1.2663770828 -2.01329e-05
*
