  15
        -26.15608230
 C          2.0749511878       -1.0207542342       -0.0000835780
 C          2.3288494414        0.3500055873        0.0000978666
 C          1.2958250090        1.2596165122        0.0000997395
 C         -0.0321882219        0.8214121129       -0.0001029491
 C         -0.2950366191       -0.5676881142       -0.0000572078
 C          0.7765537068       -1.4703284347       -0.0000581583
 C         -1.6604521805       -1.0457223049        0.0001539739
 O         -2.6520707943       -0.3361545895       -0.0000179549
 O         -1.0101582136        1.7258781073       -0.0000477627
 H          2.8954249866       -1.7212257772       -0.0001721079
 H          3.3490486457        0.7035691477        0.0000317151
 H          1.4808284614        2.3221340093        0.0003594633
 H          0.5606792268       -2.5291344819       -0.0000541094
 H         -1.7650984711       -2.1453114829        0.0005407841
 H         -1.8755158662        1.2518736412       -0.0002546544
  15
        -26.14657933
 C          1.8281230134       -1.1221238933       -0.0000808109
 C          2.3153063935        0.1771441357        0.0000996190
 C          1.4456823067        1.2517644665        0.0001044267
 C          0.0696102594        1.0478967643       -0.0000068669
 C         -0.4306926354       -0.2650494759       -0.0000383252
 C          0.4659271949       -1.3344945227       -0.0001312518
 C         -1.8738747909       -0.5199523294        0.0002155645
 O         -2.3807432287       -1.6147039486       -0.0000545832
 O         -0.8001095543        2.0849186603       -0.0001050553
 H          2.5116237284       -1.9568075216       -0.0001485924
 H          3.3800880378        0.3566030296        0.0002470536
 H          1.8320537223        2.2629756191        0.0002040840
 H          0.0520965538       -2.3316758056       -0.0002105450
 H         -2.4887168679        0.3973247431        0.0006935390
 H         -0.3176698131        2.9215828743       -0.0001862061
