! pbe def2-sv(p) def2/J RI DEFGRID1 loosescf d4 GCP(DFT/SV(P)) printgap
%output
    printlevel normal
end
* xyz 0 1
C -2.1300449941 -0.9815337329 -0.2452638401
C -1.1449107182 -0.3835351058 0.7804202377
H -1.6955026697 -0.420461094 1.7340828105
C -0.7693238466 1.0949642505 0.5347194204
H -1.6434188928 1.6147183026 0.1103948342
C 0.4248154555 1.2954367795 -0.4239818093
H 0.8143429666 2.3030880915 -0.2282664674
C 1.5626060902 0.3109068278 -0.0728781221
H 2.2779371468 0.2900449113 -0.9020812626
C 1.0739318082 -1.1402539838 0.1539594068
H 1.8662188727 -1.677717102 0.6895730275
O -0.0270376038 -1.2040857796 1.0384910407
O 0.8688463619 -1.8426256482 -1.0249531916
O 2.2649673331 0.7637953748 1.0545438226
O 0.0587646949 1.2943553765 -1.7714357708
O -0.3809169485 1.6980620027 1.7520372313
O -1.673937673 -0.8534453318 -1.582602668
H -3.0924437234 -0.4667289391 -0.1345751416
H -2.2563808069 -2.0406267652 0.0069359806
H 0.0760804756 -1.5021845592 -1.4697210127
H 1.617960562 0.9855439163 1.7396771561
H -0.4906767475 0.5195355141 -1.9580686393
H -1.0909175959 1.6254858721 2.3998672769
H -2.3008358356 -1.2812572716 -2.1756427784
*
