! pbe def2-sv(p) def2/J RI DEFGRID1 loosescf d4 GCP(DFT/SV(P)) printgap
%output
    printlevel normal
end
* xyz 0 1
C -2.2433317013 -0.9981145741 -0.4010731255
C -1.1816326948 -0.2014691773 0.3748643806
H -1.6634608649 0.2166760296 1.2671022909
C -0.6060049879 0.9641488083 -0.4355030871
H -0.4591306596 0.6786627718 -1.4935017263
C 0.7594704035 1.3351231207 0.1551289845
H 0.6246587421 1.5408282834 1.2310402027
C 1.7461257155 0.1653289402 -0.0080434432
H 2.1945840586 0.2130568228 -1.0075696719
C 1.0135533844 -1.1953474308 0.1382032869
H 1.6379780785 -1.8745706006 0.7325808477
O -0.1683464295 -1.0699040358 0.8847349034
O 0.8410207182 -1.8427145973 -1.0795149653
O 2.8244705084 0.2930489089 0.8837941788
O 1.2123099282 2.4952665018 -0.5021751002
O -1.5031050035 2.0344668992 -0.3639408723
O -2.7831053738 -2.0178574549 0.3892433929
H -1.8080580135 -1.4178919566 -1.3214456543
H -3.0611620185 -0.3269240637 -0.6700088429
H 0.3493017613 -1.2875525933 -1.6968408951
H 2.511979762 0.1438160906 1.7844705777
H 2.1261564067 2.6546243195 -0.2387845063
H -1.0280735291 2.8264674911 -0.6503843624
H -2.0440683305 -2.4879057391 0.7982156241
*
