! pbe def2-sv(p) def2/J RI DEFGRID1 loosescf d4 GCP(DFT/SV(P)) printgap
%output
    printlevel normal
end
* xyz 0 1
C -2.5379597079 -0.7593714483 1.1080457553
C -2.0195199097 -0.4009010497 -0.289091156
H -2.8889564451 -0.3431136375 -0.9549633563
C -1.0359422339 -1.4316169729 -0.8379644909
C 0.2750908235 -1.4751906748 -0.0489143277
C 0.7722409071 -0.0712965911 0.3589379323
H 0.4992268239 0.1073500789 1.4040378494
C 0.0876502205 1.0183109256 -0.4762709275
C -1.401919891 0.9862360539 -0.2469474996
O -2.0558659867 1.9767458496 -0.0334387298
C 2.2775110439 0.0094287007 0.2611931368
C 3.03531767 -0.0426477764 1.3449710928
C 2.8684556367 0.136520698 -1.1107907281
H -3.0573862329 -1.7147060219 1.0810378959
H -1.72140914 -0.8279719952 1.8217173945
H -3.2296803576 0.0066569847 1.4496799616
H -1.4988485092 -2.4205296654 -0.8218752901
H -0.8268178951 -1.191477517 -1.8830502462
H 0.1461856771 -2.0792302762 0.8498075696
H 1.0308545998 -1.9760702272 -0.6568629354
H 0.471000533 2.0047639048 -0.209483433
H 0.2706327776 0.8531161036 -1.5396967351
H 4.1103954046 -0.0104893503 1.290265119
H 2.6143754791 -0.1183414836 2.3333262043
H 2.7342506049 1.1511865391 -1.4849780373
H 3.9336613848 -0.0776116486 -1.0894728807
H 2.3891968979 -0.5448733078 -1.8114562306
*
