! pbe def2-sv(p) def2/J RI DEFGRID1 loosescf d4 GCP(DFT/SV(P)) printgap
%output
    printlevel normal
end
* xyz 0 1
C -0.8476150318 0.5913277858 -0.9515252931
C 0.5221119387 -0.0360512692 -0.7860417645
Cl 0.3805216901 -1.7243083232 -0.245964174
Cl 1.500571896 0.8860749704 0.3778861157
Cl -1.7389365316 0.6045774817 0.5899223894
H -0.7477290809 1.6257140453 -1.2822894571
H -1.4376501887 0.0176914582 -1.6672517315
H 1.0639620672 -0.0416837446 -1.7350794472
*
