! pbe def2-sv(p) def2/J RI DEFGRID1 loosescf d4 GCP(DFT/SV(P)) printgap
%output
    printlevel normal
end
* xyz 0 1
C 1.5481161573 -1.16488865 1.3598343906
C 2.9150209874 -1.3195765114 1.479852301
C 3.76931522 -0.5418014878 0.7122709754
C 3.2516705888 0.3963126278 -0.1796204358
C 1.8703672345 0.547378675 -0.2886828985
C 1.0069546615 -0.2325417897 0.4807076478
C -0.4567369603 -0.0709503294 0.3647353022
C -1.0523497993 1.1454360696 0.6741926657
C -2.4234891205 1.3094201884 0.5726082056
C -3.2298162735 0.2514995089 0.153090713
C -2.6410589069 -0.97243119 -0.1629625779
C -1.2603298091 -1.1313657945 -0.0550675624
Cl -0.552268924 -2.6375965 -0.4831592973
Cl -3.6198691906 -2.278043896 -0.6865702337
Cl -4.9265433312 0.447141831 0.0230650615
Cl -3.1339858104 2.8206984343 0.9649874628
Cl 1.2359001654 1.6826345358 -1.4148491535
Cl 4.3033920345 1.3559454189 -1.1379435154
Cl 5.4689624867 -0.7343119521 0.8571266075
H 0.8842651932 -1.7659213624 1.9604064994
H 3.328620737 -2.0419417365 2.1645960388
H -0.4418205728 1.9703468093 1.0041953259
*
