! pbe def2-sv(p) def2/J RI DEFGRID1 loosescf d4 GCP(DFT/SV(P)) printgap
%output
    printlevel normal
end
* xyz 0 1
C -2.0034170979 -0.6116295231 -0.7109452519
C -1.1935358318 -0.1001547165 0.5011186647
H -1.8618054923 -0.0656792537 1.3696116204
C -0.6350023977 1.3203679844 0.2780881964
H -1.379398273 1.887506657 -0.2963457245
C 0.6957554676 1.3047190076 -0.5052688962
H 1.1545962906 2.2985866373 -0.3957669502
C 1.6655589554 0.2786876349 0.1012171057
H 2.5449392643 0.1981394198 -0.5566051584
C 0.991056082 -1.1037216254 0.1731142067
H 1.6116022386 -1.7920192578 0.7668422151
O -0.2056168333 -1.0429712235 0.9036606972
O 0.8636235173 -1.6829458854 -1.0810335773
O 2.0272957836 0.7463014514 1.3792208572
O 0.524994329 0.9794568929 -1.8695498619
O -0.4792952949 2.0160353934 1.4826336755
O -2.3487380834 -1.9577398053 -0.5610654786
H -1.440415981 -0.4603252431 -1.6436116907
H -2.9390251117 -0.0506617342 -0.7758505245
H 0.6263276399 -0.9992915236 -1.7267831452
H 2.5616304673 0.0782364788 1.8234144273
H 0.0364462149 1.6877291666 -2.3029722769
H 0.27778028 1.6342332222 1.9522878319
H -1.545581629 -2.4340658338 -0.3055070048
*
