! pbe def2-sv(p) def2/J RI DEFGRID1 loosescf d4 GCP(DFT/SV(P)) printgap
%output
    printlevel normal
end
* xyz 0 1
C -2.7927826023 -0.3918543171 -3.17545e-05
O -1.3868727294 -0.646545033 4.07937e-05
C -0.6004923024 0.406272815 0.0001689924
O -0.9206770994 1.5561877887 1.68536e-05
C 0.8838569598 -0.0703080886 3.30947e-05
F 1.7277790291 0.9570620994 0.0006693327
F 1.1505894545 -0.8176503393 1.0773485546
F 1.150677371 -0.8163665254 -1.0781765112
H -3.2714864736 -1.3667353153 -0.0162706011
H -3.0673882875 0.1906285746 -0.8805430207
H -3.0721710735 0.1627214664 0.89685868
*
