! pbe def2-sv(p) def2/J RI DEFGRID1 loosescf d4 GCP(DFT/SV(P)) printgap
%output
    printlevel normal
end
* xyz 0 1
C -2.4348535999 -0.8656071628 0.0990823244
C -1.0421385955 -0.4970173869 0.6244657871
H -0.96707275 -0.7501466719 1.6950727665
C -0.7556582043 1.0173110384 0.4576723321
H -1.6270566413 1.4973100025 0.0009401729
C 0.4470623577 1.2112959826 -0.4891958056
H 0.7248948507 2.2806230505 -0.4732229757
C 1.6368859877 0.3856622489 0.0331169446
H 2.4567769987 0.4042342886 -0.7011765582
C 1.2142620595 -1.0898851364 0.1970241925
H 1.4085214359 -1.3780203426 1.2529738134
O -0.1345194778 -1.3047170282 -0.1076361267
O 1.9656122787 -1.8539965462 -0.6815818275
O 2.0829291672 0.8515179996 1.2871611527
O 0.0609273223 0.8283631864 -1.7831448612
O -0.5538280802 1.6590905063 1.684493572
O -2.6914161488 -0.3157016017 -1.1614769534
H -3.1990794198 -0.4800677558 0.7782461333
H -2.5026633042 -1.9630007993 0.0650319546
H 1.5291345932 -2.7091525009 -0.7804472575
H 2.4802022379 1.7240613858 1.179888151
H 0.8409186334 0.5964458664 -2.3000899322
H 0.2779804527 1.3356056516 2.0651520255
H -1.8703042662 -0.3355287359 -1.6727638966
*
