! pbe def2-sv(p) def2/J RI DEFGRID1 loosescf d4 GCP(DFT/SV(P)) printgap
%output
    printlevel normal
end
* xyz 0 1
C -1.808704196 -1.0490365868 -0.6643633005
C -1.0369213057 -0.4446847173 0.5291206204
H -1.6929161306 -0.4987116932 1.4068525737
C -0.6803223555 1.0363802674 0.3216837122
H -1.502850694 1.5193675877 -0.2307313227
C 0.6185567161 1.240647605 -0.4964802999
H 0.9164502041 2.2952871787 -0.3939386979
C 1.7342306042 0.3626650818 0.0940528344
H 2.6178865637 0.4102873272 -0.5507974692
C 1.2511670607 -1.1000437216 0.1537362142
H 1.992765764 -1.6915806677 0.7126216823
O 0.0790689422 -1.2437648928 0.8997342721
O 1.123448097 -1.5771500309 -1.1627548553
O 2.1307754057 0.798846447 1.3607836546
O 0.4195838755 1.0148173203 -1.8648716155
O -0.5597276346 1.6089806805 1.6079932791
O -3.1552950356 -0.6550716328 -0.6807326401
H -1.82311294 -2.1348521951 -0.5387975723
H -1.3197148522 -0.8029235861 -1.6142557129
H 0.8477895065 -2.5012092387 -1.1379368693
H 1.3523438688 0.7789080014 1.9411393377
H 0.6381924226 0.0901670702 -2.0544865497
H -0.3448463186 2.5456340078 1.5241107543
H -3.2124686395 0.2890620512 -0.8642068299
*
