! r2scan-3c def2/J RI DEFGRID2 scfconv6 printgap
%output
    printlevel normal
end
* xyz 0 1
C -1.265637519 1.2549772695 0.7262593467
C -0.5221630231 0.3127254189 0.0302155997
C -1.1732394818 -0.7512408547 -0.5930163142
C -2.5587943253 -0.8749966463 -0.507388113
C -3.2998154495 0.0707917653 0.2012749708
C -2.6432426407 1.1378075902 0.8144815436
Cl -3.5450335928 2.3106142872 1.6818103272
Cl -5.002109223 -0.0804648345 0.3088803295
Cl -3.3540781917 -2.1841102487 -1.2732267413
Cl -0.2699683116 -1.8997988939 -1.4929091823
C 0.9487445897 0.4404306718 -0.0615803914
C 1.5351899759 1.4426628729 -0.8328535348
C 2.9118036244 1.5562718187 -0.9394415293
C 3.7256355327 0.659699444 -0.2647683947
C 3.1688877797 -0.3491667367 0.5222334679
C 1.7816714752 -0.4484899761 0.6166990716
Cl 1.0836571962 -1.6664761635 1.6011651961
Cl 4.1739432131 -1.4523669007 1.3642830981
Cl 5.4283384964 0.7956001783 -0.3971783737
Cl 0.5279356513 2.5434075271 -1.6856743046
H -0.7675028285 2.0816220909 1.2067177157
H 3.349598623 2.3327120821 -1.5450680163
*
