! pbe def2-sv(p) def2/J RI DEFGRID1 loosescf d4 GCP(DFT/SV(P)) printgap
%output
    printlevel normal
end
* xyz 0 1
C 0.7858251788 -1.2302352392 -0.0877194232
C -0.7496380964 -1.1609682269 -0.3166170287
N -1.3460119974 -0.0145379294 0.3464711944
C -0.7778865846 1.2285923441 -0.1549389684
C 0.7692712349 1.1570867742 -0.2820553916
N 1.3204517826 0.0196598502 0.4335441135
H 1.2984744831 -1.4347093452 -1.0327627444
H 1.0416987706 -2.024608872 0.6159443224
H -0.9724470232 -1.0614298702 -1.3822274502
H -1.2394223406 -2.0641484802 0.0520130908
H -1.189561533 -0.0884971198 1.3486620495
H -1.227378826 1.4204021696 -1.1341232139
H -1.078977567 2.0320709605 0.5198151766
H 1.0612758937 1.0437944842 -1.3294533769
H 1.2342386258 2.0652063111 0.1060569929
H 1.0987392418 0.1065737287 1.4222880395
*
