! pbe def2-sv(p) def2/J RI DEFGRID1 loosescf d4 GCP(DFT/SV(P)) printgap
%output
    printlevel normal
end
* xyz 0 1
C 2.1570686931 2.8876215538 0.9110945051
C 2.2187068645 1.7261871239 -0.0770114291
C 2.9195774402 0.4793733629 0.5208896538
C 1.8871524832 -0.5936174309 0.3514224878
C 1.9249302978 -1.9407581635 0.6329056237
C 0.7957198017 -2.7060654363 0.3707249578
C -0.3416455338 -2.1264836 -0.1621177824
C -0.3920033933 -0.7622777929 -0.4439710928
C 0.7404286412 0.0009963743 -0.1764061985
O 0.8608824501 1.3272704859 -0.3745197305
O -1.4936774615 -0.1828175389 -1.0459614086
C -2.7170896321 -0.1806100688 -0.4572152179
O -3.6884382014 0.1253107013 -1.0945214959
N -2.7413687083 -0.5267506343 0.8532512893
C -3.9650342973 -0.5261869432 1.6152812485
C 2.8706801516 2.1588545755 -1.3897253102
H 1.6618339413 2.5753248101 1.827886378
H 3.1607400867 3.2309310254 1.1470742422
H 1.5926743045 3.7088657725 0.4777296166
H 3.8407311717 0.2450732018 -0.0137109476
H 3.1681617484 0.6262254576 1.5743512936
H 2.8145263828 -2.3921201225 1.0439971799
H 0.8044899297 -3.7649262923 0.5762617277
H -1.2118524855 -2.7279095402 -0.378863361
H -1.8749902773 -0.6898914477 1.3422035636
H -4.1294512016 -1.5044704976 2.0708396752
H -4.7776258767 -0.305010496 0.9256643393
H -3.9390963861 0.2351919065 2.3976209862
H 3.8877874857 2.4981011824 -1.2119293008
H 2.2976906859 2.9677631699 -1.8350793897
H 2.8876190484 1.3248224708 -2.0879229858
*
