! pbe def2-sv(p) def2/J RI DEFGRID1 loosescf d4 GCP(DFT/SV(P)) printgap
%output
    printlevel normal
end
* xyz 0 1
C 3.7202694583 -0.0954138401 0.238450972
C 2.2431864377 -0.1291595139 0.0320071007
C 1.4823223864 0.9688691384 0.0272990876
C 0.0535578468 0.9666300934 -0.3015563955
O -0.4860768301 1.9776755105 -0.7016883021
C -0.6655403035 -0.3768427763 -0.2441130731
H -0.8033392386 -0.6327597562 -1.3038087866
C 0.2044765372 -1.4568014729 0.4017692921
C 1.6106632204 -1.4690966731 -0.185597406
C -2.0704172748 -0.3707620125 0.4248085623
C -2.5972639679 1.0060239276 0.8189353198
C -3.0817973163 -1.069038778 -0.4842966579
H 4.2243696911 -0.5896362579 -0.5917009401
H 3.9811723174 -0.6361583295 1.1484116509
H 4.0863421176 0.9243369216 0.319126863
H 1.9189645749 1.9502617868 0.1513296138
H 0.2785845956 -1.2623605267 1.4750602191
H -0.2694336519 -2.4315663508 0.2678174719
H 2.213241019 -2.2531847837 0.2771568483
H 1.5639100348 -1.6794643775 -1.2593259445
H -1.9857882253 -0.9583742458 1.3470726124
H -2.7045547792 1.647190861 -0.0504543714
H -1.9254482643 1.4943602897 1.5210435908
H -3.56980149 0.8958715235 1.2951240129
H -3.2313590173 -0.4921615853 -1.3944192699
H -4.0410534925 -1.1655034221 0.0194416077
H -2.7385253934 -2.0657750142 -0.7552560478
*
