  5
        -11.30931125
 C          0.0000835858        0.9857531139       -0.0000030260
 Br        -1.6105840008       -0.0942076328       -0.0000004444
 Br         1.6105708829       -0.0942166383       -0.0000008387
 H          0.0000498792        1.5952750379        0.9008994997
 H         -0.0000060094        1.5954902177       -0.9007617243
