! pbe def2-sv(p) def2/J RI DEFGRID1 loosescf d4 GCP(DFT/SV(P)) printgap
%output
    printlevel normal
end
* xyz 0 1
C -3.5395288205 -0.2005422075 0.3738624368
C -2.0631175529 0.1477959963 0.5449709401
H -1.9019837156 0.4382997211 1.5894559895
C -1.6630886511 1.3321224466 -0.3302012631
C -0.2077980289 1.6791655597 -0.0466458524
C 0.7292216368 0.5671322086 -0.5253870399
H 1.0021213128 0.764938113 -1.5689034382
C 0.1010948802 -0.8134044693 -0.5393576505
O 0.6224081787 -1.7193115534 -1.1486414406
C -1.1846317927 -1.066987484 0.2176035677
C 2.0511528006 0.5454883878 0.2855545907
C 1.8779303034 -0.1492695623 1.6349768901
C 3.1701031529 -0.1227887249 -0.5075188573
H -3.7529725867 -0.4552600697 -0.662172868
H -3.8084613949 -1.0478079704 1.0006401848
H -4.1647924744 0.6445611874 0.6536151542
H -1.7896864933 1.0768640885 -1.3847032979
H -2.3029523493 2.1884524419 -0.1089255424
H 0.0661935078 2.6127681354 -0.5421266927
H -0.091146711 1.8357380483 1.0278598021
H -1.7476831978 -1.7881105331 -0.381154809
H -0.9034583497 -1.5903595885 1.1358007085
H 2.3273747774 1.591645942 0.4651345533
H 1.7190587132 -1.2159440188 1.4926262789
H 1.0342628635 0.2586198769 2.1872608126
H 2.7729717802 -0.0180189577 2.2392144675
H 2.8803841324 -1.13253825 -0.7865826598
H 4.0779217591 -0.1729182122 0.0896517616
H 3.3861054308 0.4363957953 -1.4153437627
*
