! pbe def2-sv(p) def2/J RI DEFGRID1 loosescf d4 GCP(DFT/SV(P)) printgap
%output
    printlevel normal
end
* xyz 0 1
C 2.2984670701 -0.3709120958 -0.3355345003
C 1.0455541682 -0.2454298214 0.5333066958
H 1.2735144874 -0.623135181 1.5387970742
C 0.5066080198 1.1901792917 0.5734376569
C -0.5034500016 1.1904211649 -0.5714596792
C -1.0433882839 -0.2450734772 -0.5325343471
H -1.2649118665 -0.6239493629 -1.539103268
O -0.0012915598 -1.0485100749 0.0051255055
C -2.3020829852 -0.3686444627 0.3279826859
H 3.1276852529 0.1621302968 0.1225575927
H 2.5644451322 -1.41937175 -0.4378287796
H 2.1149606138 0.0361337332 -1.3266783562
H 0.0051565784 1.3810955744 1.5226221685
H 1.2973608318 1.925294103 0.4419069931
H -1.2940312126 1.9255351778 -0.4393546397
H -0.0019919379 1.382425634 -1.5204702973
H -3.1281031423 0.1638546858 -0.1366644229
H -2.1248386408 0.0401493112 1.3195806124
H -2.5690977228 -1.4169456826 0.4304917175
*
