! pbe def2-sv(p) def2/J RI DEFGRID1 loosescf d4 GCP(DFT/SV(P)) printgap
%output
    printlevel normal
end
* xyz 0 1
C -1.9306164465 -1.1761221554 -0.3936532754
C -1.0522493313 -0.5305218635 0.7237458144
H -1.6022829559 -0.6050094639 1.6716639492
C -0.7596827677 0.9658944643 0.4997443173
H -1.6548414963 1.4352063852 0.0658032438
C 0.4300257693 1.2066893646 -0.4447108478
H 0.6884570843 2.2718758349 -0.368299341
C 1.6471147976 0.3726573764 0.00494909
H 2.4320712217 0.4247599034 -0.7613149457
C 1.2244499412 -1.1106599181 0.1272550145
H 2.0217662495 -1.6804075755 0.6178664165
O 0.1235051177 -1.2771185188 0.9877279647
O 1.0510952139 -1.6752372409 -1.1340464243
O 2.2128455051 0.8736129642 1.1770277222
O 0.0371982032 0.8810865439 -1.7694924398
O -0.4189834138 1.6029455856 1.7152692218
O -2.5193463878 -0.2662077482 -1.2828039762
H -2.7642339855 -1.7016430406 0.077261919
H -1.3272013295 -1.9220704139 -0.9229277778
H 0.508368036 -1.0757484981 -1.6702828099
H 1.5020937341 1.0061216144 1.8230810694
H 0.6905430498 1.2356831019 -2.3825929761
H -1.1358449881 1.4829889929 2.3482063952
H -1.8238108175 0.1625953238 -1.8009245865
*
