! pbe def2-sv(p) def2/J RI DEFGRID1 loosescf d4 GCP(DFT/SV(P)) printgap
%output
    printlevel normal
end
* xyz 0 1
C -3.3653235266 0.0269896701 0.6843629747
C -1.8454860425 0.0646079412 0.5425367072
H -1.4114307132 -0.1829109227 1.516397366
C -1.3620048837 1.4607893825 0.1111826345
C -0.296741103 1.4146015616 -0.9868408388
C 0.7631113164 0.324039736 -0.8071507373
H 1.2820899002 0.2233011102 -1.7698600148
C 0.1257868117 -1.0281671265 -0.5535092961
O 0.7630641253 -2.0495113912 -0.4621306902
C -1.3789876384 -1.0070681148 -0.4479688749
C 1.8715840996 0.6596175588 0.2244778107
C 1.4835533591 0.3475694356 1.6681242494
C 3.1544487986 -0.0930397784 -0.126488323
H -3.694006501 -0.9485354456 1.0356496409
H -3.697148194 0.7770144508 1.3989420833
H -3.8439460846 0.2261473557 -0.2725064654
H -2.2085283666 2.0376548764 -0.2680779461
H -0.9773329919 2.0005641434 0.9771461554
H -0.7924677826 1.2467617195 -1.9463427924
H 0.1946895324 2.387883221 -1.0509604141
H -1.7925118833 -0.7992111798 -1.437771015
H -1.7254265922 -1.9938719552 -0.135589669
H 2.06808751 1.7359653873 0.1452673113
H 2.3132083928 0.5916508633 2.3287644399
H 1.2617755024 -0.7105996321 1.7823085037
H 0.6223785023 0.9262343729 1.9875460099
H 2.9703699032 -1.1638817067 -0.1131320504
H 3.9360965232 0.1346118868 0.5949813822
H 3.5112560253 0.1862884416 -1.1159492508
*
