! r2scan-3c def2/J RI DEFGRID2 scfconv6 printgap
%output
    printlevel normal
end
* xyz 0 1
C 1.4795478374 -0.3689728323 0.4194946358
C 0.6682711252 0.5463214523 -0.4866484738
C -0.8113095126 0.3326509213 -0.353312591
O -1.3446637712 -0.4579230581 0.370735183
H 1.2705858092 -1.4092784936 0.1838493455
H 1.2116650958 -0.199049739 1.4591081273
H 2.5437509376 -0.186437768 0.2954485575
H 0.8703401847 1.5979883258 -0.2637822385
H 0.9298923092 0.3899835908 -1.5371909783
H -1.4080395377 0.9982711012 -1.0118431786
*
