! pbe def2-sv(p) def2/J RI DEFGRID1 loosescf d4 GCP(DFT/SV(P)) printgap
%output
    printlevel normal
end
* xyz 0 1
C -2.2711744151 0.3285157475 -0.263704493
C -1.2294910595 -0.0370436994 0.4609303954
C -0.0769640253 -0.8055929026 -0.0793421173
Cl 1.4019026761 0.2189735501 -0.0332642616
H -3.0869515418 0.88905634 0.1582732764
H -2.3533864385 0.074059015 -1.3076486234
H -1.1558048366 0.235480884 1.5046486323
H 0.147047464 -1.6821466766 0.5291724317
H -0.2288961658 -1.0921650963 -1.1191756283
*
