! pbe def2-sv(p) def2/J RI DEFGRID1 loosescf d4 GCP(DFT/SV(P)) printgap
%output
    printlevel normal
end
* xyz 0 1
C -2.002627424 0.688454702 0.4219868101
O -1.1115730864 -0.4103337202 0.4326847105
S 0.364405092 -0.0071242663 -0.1066926035
O 0.9417542655 0.9414334864 0.7930263418
O 0.2675035517 0.3628163343 -1.4837852307
C 1.1399500502 -1.6193805909 0.0732341886
H -1.6149421083 1.4823665141 1.0641912799
H -2.9592123348 0.3280753338 0.7961412681
H -2.1081782958 1.0661960925 -0.5974297725
H 0.3763470245 -2.2846797645 0.4501383866
H 1.4881654401 -1.9370511834 -0.8998336036
H 1.9563197342 -1.5246028268 0.77573724
*
