! pbe def2-sv(p) def2/J RI DEFGRID1 loosescf d4 GCP(DFT/SV(P)) printgap
%output
    printlevel normal
end
* xyz 0 1
C -2.3483593557 1.1063951803 0.0730643747
C -1.4274100895 -0.0872437402 0.1627908949
O -1.5650188882 -0.9276519953 1.015016261
C -0.3532525802 -0.1593849446 -0.9162101227
C 0.5503276188 -1.3921766313 -0.748337197
C 1.8912226217 -1.0406503129 -0.0990872632
C 1.6774019166 0.0088934438 0.9847246577
C 1.2393641459 1.3393047426 0.3597952561
C 0.4901243661 1.1203389475 -0.9588047191
H -1.8780118967 1.9531430301 0.5699233135
H -2.5504433889 1.3788318576 -0.9587465426
H -3.2788859315 0.8866976247 0.5908109129
H -0.9040005976 -0.2397748996 -1.861683017
H 0.0247853682 -2.1092975274 -0.1145300123
H 0.724017029 -1.8644033225 -1.7166185457
H 2.3321087434 -1.9412872412 0.3306551949
H 2.5905486295 -0.6564178775 -0.8448696115
H 0.9081935652 -0.3544664582 1.6675384244
H 2.5915929427 0.1535758516 1.5626800012
H 0.6055598925 1.8774326205 1.067419437
H 2.111980438 1.966570328 0.1651044974
H -0.1314879176 1.9874335413 -1.1849489438
H 1.2070800026 1.016238559 -1.7752840116
*
