! pbe def2-sv(p) def2/J RI DEFGRID1 loosescf d4 GCP(DFT/SV(P)) printgap
%output
    printlevel normal
end
* xyz 0 1
C -3.8004311549 0.7045289093 -0.0007957941
O -2.3867004423 0.8180954464 0.0003440805
C -1.7087253464 -0.3432929207 0.0002571837
O -2.2560311468 -1.4202431879 -0.0002370542
C -0.2443290052 -0.1485309791 0.0005146767
C 0.5728877568 -1.2769155713 0.0003886761
C 1.9453117556 -1.146246827 7.30449e-05
C 2.5236194228 0.1208243338 -0.0001084513
C 1.708876011 1.2530333028 0.0001892724
C 0.3381754888 1.1185738251 0.0004645966
O 3.8655951127 0.2999972622 -0.0006465845
H -4.1379338443 0.1676271706 -0.8900225194
H -4.1876471443 1.7202551923 0.0025306358
H -4.1389356959 0.1612829777 0.8841601141
H 0.1092289943 -2.2515358367 0.0003615688
H 2.5772175032 -2.0246567283 -0.0001558878
H 2.1774674201 2.2242141486 0.0002281494
H -0.2930695809 1.9926955076 0.0008046191
H 4.3163422215 -0.553791761 -0.0010584494
*
