! pbe def2-sv(p) def2/J RI DEFGRID1 loosescf d4 GCP(DFT/SV(P)) printgap
%output
    printlevel normal
end
* xyz 0 1
C 1.1534045782 -1.3420985807 -0.5165780205
C 0.6817364246 -0.2294665071 0.4268721423
C 1.6410934826 0.9552038793 0.3875287313
C -0.7178962774 0.186946245 0.0007736313
O -0.9402453982 1.208311036 -0.5974635909
C -1.8201073902 -0.7832241593 0.3597838553
H 0.4823184751 -2.1970875032 -0.4875657321
H 1.1960436342 -0.9695906895 -1.5376490277
H 2.1482670599 -1.6743449046 -0.2291992503
H 0.6272492254 -0.6279636482 1.445815389
H 1.3160274718 1.7290245245 1.0787996555
H 1.6618790923 1.382231972 -0.6118239311
H 2.6459731895 0.6411143756 0.6592224869
H -1.4495283616 -1.6568594357 0.8859543727
H -2.3358260385 -1.0899865985 -0.5482458778
H -2.5477149187 -0.2664151488 0.9830019808
*
