! pbe def2-sv(p) def2/J RI DEFGRID1 loosescf d4 GCP(DFT/SV(P)) printgap
%output
    printlevel normal
end
* xyz 0 1
C -2.3555553692 -1.0351896087 0.2373400956
C -1.1338918295 -0.2717755015 0.7957431197
H -1.4213910223 0.123030938 1.7823424339
C -0.755250999 0.9140406496 -0.1006806139
H -0.8491049197 0.6494910422 -1.1607135223
C 0.6914768295 1.3189009464 0.2062149883
H 0.790253552 1.4853024096 1.2941250737
C 1.6366911068 0.180913417 -0.1976330604
H 1.7812832972 0.2332666857 -1.2894344617
C 1.023995688 -1.1996961641 0.1396799897
H 1.7890704337 -1.7883949006 0.6574422215
O -0.0342653558 -1.1337406455 1.062371298
O 0.7026721786 -1.9198502389 -1.0053628869
O 2.8707706648 0.2814755001 0.4588524186
O 1.0524384619 2.4872682396 -0.4884606944
O -1.6235112195 2.0080335674 0.0683345189
O -2.0809813036 -1.7262534632 -0.9512466802
H -3.1312380428 -0.3032016648 -0.0010885524
H -2.7283982777 -1.7179864205 1.009486816
H 0.0114354361 -1.4640132061 -1.5101105404
H 3.2310628601 1.1590155198 0.2794999162
H 0.2481116711 3.0084252856 -0.6225882827
H -1.6485378085 2.2540504829 1.0019918023
H -1.5185336741 -2.4843410573 -0.7386832607
*
