! pbe def2-sv(p) def2/J RI DEFGRID1 loosescf d4 GCP(DFT/SV(P)) printgap
%output
    printlevel normal
end
* xyz 0 1
C -1.7900057762 -1.1001841164 -0.6354109554
C -1.0234206761 -0.5013397635 0.5562559205
H -1.6763010428 -0.5841043379 1.4333860844
C -0.7225067761 1.0006017256 0.3676728132
H -1.5853560027 1.4401533249 -0.147443389
C 0.5569018376 1.2347005902 -0.4609611421
H 0.8458903731 2.2894764326 -0.3347690602
C 1.7083199181 0.368774225 0.075530034
H 2.5620006069 0.4546223661 -0.6153584475
C 1.2737533376 -1.1093833905 0.1192911488
H 2.0223991578 -1.7076323295 0.6600321396
O 0.1164275006 -1.2718386916 0.898717665
O 1.194987827 -1.6467425193 -1.1579720645
O 2.0437008437 0.8527247127 1.3548354291
O 0.3886741938 0.9276137364 -1.8308439318
O -0.6306543048 1.6719721176 1.5932253553
O -3.0412814494 -0.4513074241 -0.7175107823
H -1.9037254024 -2.1745857825 -0.4481088637
H -1.2355168242 -0.9686091508 -1.5727454023
H 0.8530892814 -0.9683374247 -1.7616993267
H 2.6754046303 0.2511951619 1.7649719164
H -0.3213101612 1.4778046504 -2.18115932
H 0.1988618698 1.4049815275 2.0170492776
H -3.6123057213 -0.9502432965 -1.3103580544
*
