! pbe def2-sv(p) def2/J RI DEFGRID1 loosescf d4 GCP(DFT/SV(P)) printgap
%output
    printlevel normal
end
* xyz 0 1
C -2.4528296037 -0.8779827256 -0.1260967084
C -1.0966205068 -0.5927569369 0.5412606704
H -1.1153843366 -0.9666119428 1.581146836
C -0.764486154 0.9188358146 0.5762124533
H -1.6527608576 1.4880179004 0.2721251503
C 0.3663737147 1.2341445453 -0.4166707593
H 0.6374845395 2.2934388306 -0.2896931397
C 1.6131240657 0.3900448617 -0.074390953
H 2.2870684148 0.365297244 -0.9403827071
C 1.1913577682 -1.0739032952 0.2529194459
H 1.2768457624 -1.2240779305 1.3431052235
O -0.1254852512 -1.3203334194 -0.1787299865
O 2.0099960425 -2.0151618972 -0.3418251073
O 2.346168272 0.9768953352 0.9608367688
O -0.1131993663 0.9955515212 -1.7185488144
O -0.317237198 1.3340633174 1.8519310223
O -2.7382105976 -0.028774554 -1.1986516173
H -3.2598331139 -0.7392778788 0.5986293094
H -2.4397032226 -1.9290792389 -0.4467387043
H 1.7128100762 -2.1319883602 -1.2526318205
H 1.7378358691 1.1622183593 1.6908087428
H 0.5686541253 1.2456125548 -2.3514790398
H -1.0545734092 1.3009697236 2.4704556088
H -1.9352041659 0.0716362309 -1.7304765307
*
