! r2scan-3c def2/J RI DEFGRID2 scfconv6 printgap
%output
    printlevel normal
end
* xyz 0 1
C -0.6497700121 0.8876134865 0.4175274891
C 0.3969806458 0.1257751545 -0.3679681761
Cl 0.3852644957 -1.5964123383 0.0661782473
Cl 1.99877008 0.8190664446 -0.0123010353
Cl -2.2732447502 0.3528119116 -0.0777771923
H -0.5473631233 0.7042888203 1.4874117116
H -0.5746836729 1.955491325 0.2086271486
H 0.237456459 0.1968448172 -1.4459455047
*
