! r2scan-3c def2/J RI DEFGRID2 scfconv6 printgap
%output
    printlevel normal
end
* xyz 0 1
C -1.7351622432 0.6105789278 -0.5072034623
C -0.8180907099 0.2269177886 0.6473541643
N 0.4965323439 -0.1723885984 0.1049987376
O 0.8233040641 -1.3264116664 0.2322764188
O 1.1473900821 0.6852760522 -0.4387341836
H -2.6852512011 0.9673403524 -0.12020809
H -1.2773475931 1.4010939434 -1.0974029676
H -1.9214435832 -0.2468801567 -1.1499030392
H -1.2150057629 -0.6158815644 1.2146981542
H -0.6572593147 1.0870523633 1.3008112416
*
