! r2scan-3c def2/J RI DEFGRID2 scfconv6 printgap
%output
    printlevel normal
end
* xyz 0 1
C -2.1174277797 -0.9254804311 -0.2914634815
C -1.1758434191 -0.3498173077 0.7850004737
H -1.7319848959 -0.3782485453 1.7301425546
C -0.7645170397 1.1227313445 0.5656842009
H -1.6369390249 1.6679636136 0.1877064652
C 0.3956067782 1.2964946511 -0.4325844417
H 0.8320826124 2.2874748345 -0.2467503344
C 1.5257982266 0.2853033454 -0.1160443698
H 2.1780998048 0.2219139695 -0.9976371826
C 1.0382432388 -1.141243506 0.202491018
H 1.8349645547 -1.6499822854 0.7737106925
O -0.0614580749 -1.2039630456 1.0530132516
O 0.8250627524 -1.8389705889 -1.0047320335
O 2.2113340826 0.8044175646 1.0037898623
O 0.0137784506 1.2931561389 -1.7704718716
O -0.4411693273 1.714475793 1.7979081279
O -1.6454007445 -0.8629191177 -1.6132434805
H -3.0480092141 -0.3542678778 -0.2752435919
H -2.3401626017 -1.9661753812 -0.0173392016
H 0.6611801407 -2.7686940253 -0.8015878005
H 3.0221946882 0.3066345396 1.1556468674
H -0.6617893517 0.6033637041 -1.9203231857
H 0.4492781268 1.4268656901 2.0448852993
H -0.7932173047 -1.3397286955 -1.6583982518
*
