! r2scan-3c def2/J RI DEFGRID2 scfconv6 printgap
%output
    printlevel normal
end
* xyz 0 1
C 3.7256175255 -0.1637604656 -0.0828707021
C 2.257173373 -0.3087871875 0.3049640244
H 2.1971820756 -0.5039674676 1.3822172893
C 1.6031358943 -1.4730402819 -0.4362367464
C 0.1280099905 -1.5919960479 -0.0688058259
C -0.6442853134 -0.3073856967 -0.3899914126
H -0.5212274942 -0.0934218521 -1.457578663
C 0.0096695011 0.8541348087 0.3819724909
H -0.0535753495 0.6468642219 1.4623883304
C 1.4859516619 0.9712461 -0.0009426837
O -0.5713113609 2.1126506152 0.1053159246
C -2.1569696133 -0.5095582608 -0.1330743918
C -2.5699510195 -0.3140430788 1.3263955829
C -3.0172064766 0.3516217904 -1.0610561243
H 4.2731154604 -1.0757554631 0.1450606809
H 3.8184836861 0.0351164979 -1.1483295361
H 4.1852445231 0.6586246691 0.4601927775
H 1.6967828778 -1.3105804783 -1.5124737086
H 2.1179526461 -2.4052724838 -0.1930913993
H -0.3143688733 -2.4268494899 -0.6172286832
H 0.0390797328 -1.811178504 0.9980281457
H 1.546779074 1.2001730947 -1.0663837287
H 1.9127594183 1.8156636527 0.5426487933
H -1.4750752742 2.1136774445 0.4360413253
H -2.3745051982 -1.5551289511 -0.385790765
H -1.9457605523 -0.9094994204 1.9883038226
H -3.6017098027 -0.6335822522 1.4600865052
H -2.505319644 0.7273419074 1.6355813512
H -2.8196590483 0.0962559861 -2.0999347932
H -2.819843127 1.4127768564 -0.9358475535
H -4.0728148369 0.1741987617 -0.8631986897
*
