! pbe def2-sv(p) def2/J RI DEFGRID1 loosescf d4 GCP(DFT/SV(P)) printgap
%output
    printlevel normal
end
* xyz 0 1
C -3.4810513896 0.4282107775 0.1001676459
O -2.2013389173 0.4741783186 -0.5168613296
C -1.2239006621 -0.2617069913 0.0324473587
O -1.3792326918 -0.9719675049 0.9900991686
C 0.0794883438 -0.0384769696 -0.7044779592
C 1.0256159674 -1.2380970342 -0.5476897019
C 1.954379973 -1.0468909021 0.6455940816
C 2.8940755859 0.1426110262 0.4188459519
C 2.2109617903 1.2488115904 -0.3951420382
C 0.7090581261 1.2501960104 -0.1370776658
H -4.2221955744 0.5076311162 -0.6925607413
H -3.5833017499 1.2660853506 0.7925886295
H -3.5986027565 -0.5095379619 0.6464838983
H -0.160033225 0.1182578213 -1.7596342091
H 0.4342829418 -2.1445520673 -0.4095502278
H 1.6204263013 -1.3570750061 -1.4548601153
H 1.3432318426 -0.8876088061 1.5341822167
H 2.5392009973 -1.9532856244 0.8089718729
H 3.2118434896 0.5357117808 1.3861306951
H 3.7906779465 -0.1881150579 -0.1087911055
H 2.6336683439 2.2199810833 -0.1327516328
H 2.3833875693 1.0932660762 -1.4617535217
H 0.5318733844 1.308032756 0.938867646
H 0.2365779727 2.1175176837 -0.600343448
*
