  10
        -15.45215475
 C         -0.7164327601       -0.6013971181        0.2939321340
 C          0.6955991063       -0.6138940371       -0.2984155830
 O          1.4108157518        0.5396436597        0.0851978740
 O         -1.4367995969        0.5240670843       -0.1357243585
 H         -0.6483268584       -0.6102688640        1.3953400970
 H         -1.2734640685       -1.4836087113       -0.0277385619
 H          0.6396706993       -0.5730603252       -1.3882777052
 H          1.2229392023       -1.5288122893        0.0004268338
 H          1.5378355726        0.5260520493        1.0411397535
 H         -0.8179154385        1.2668093505       -0.1654046108
  10
        -15.45106955
 C         -0.6110628771        0.0111860443        0.4650710593
 C          0.6110935907       -0.0118184235       -0.4651550613
 O          1.8232114614        0.0132478695        0.2449614842
 O         -1.8232398497       -0.0127193728       -0.2449751354
 H         -0.5500835008        0.8916874804        1.1205039963
 H         -0.6194584698       -0.8861712375        1.0912835833
 H          0.6191703383        0.8849631330       -1.0921509478
 H          0.5505757148       -0.8929616603       -1.1198747900
 H          1.8739097363       -0.7681335288        0.8067441986
 H         -1.8740291919        0.7697624311       -0.8052883025
  10
        -15.45081534
 C         -0.7178152353       -0.5870731986       -0.2871030944
 C          0.6979431168       -0.6182760957        0.2903976138
 O          1.3723357116        0.5301042325       -0.1878286524
 O         -1.4399064249        0.5225070549        0.1744845273
 H         -1.2689080426       -1.4752149038        0.0279144640
 H         -0.6488230757       -0.5742778487       -1.3840073063
 H          1.2068565287       -1.5359267226       -0.0323412337
 H          0.6453411958       -0.6033755251        1.3872842753
 H          2.2676635274        0.5426072121        0.1629080986
 H         -0.8926997477        1.3010159886        0.0108059663
  10
        -15.45041076
 C         -0.7220416582       -0.6165423166        0.2646994814
 C          0.7255076483       -0.6229537126       -0.2385042320
 O          1.4147028536        0.5602625505        0.0723635633
 O         -1.4178889921        0.5484800246       -0.0958104758
 H         -0.7419703067       -0.6416890553        1.3587698981
 H         -1.2323773532       -1.5158179611       -0.1129436804
 H          0.7456284985       -0.6940436875       -1.3305306151
 H          1.2410286583       -1.5024784165        0.1765217260
 H          1.2453052738        0.7869122974        0.9939885649
 H         -1.2483417298        0.7378389678       -1.0257747480
  10
        -15.45028905
 C         -0.6116176039        0.0191175648        0.4635046524
 C          0.6115577351       -0.0027187582       -0.4638668370
 O          1.8234579915        0.0496991708        0.2431322854
 O         -1.8237207722        0.0243181549       -0.2452328465
 H         -0.6065618908        0.9345679695        1.0589685688
 H         -0.5646286363       -0.8431332664        1.1498167265
 H          0.6007112549        0.8782095206       -1.1092453422
 H          0.5701520966       -0.9020358703       -1.1012711915
 H          1.8623483342       -0.6897843775        0.8604553325
 H         -1.8571363311       -0.7481968967       -0.8210636949
  10
        -15.44991841
 C         -0.7119776509       -0.6171592002        0.2984289964
 C          0.7156456830       -0.6251758654       -0.2719954605
 O          1.4383525550        0.5286981945        0.0935414620
 O         -1.4414236172        0.5158643966       -0.1157720953
 H         -0.6690425313       -0.6667225170        1.3936366095
 H         -1.2563304422       -1.4855121033       -0.0764184601
 H          0.6731024499       -0.7214562150       -1.3640795313
 H          1.2650588929       -1.4736024726        0.1393176775
 H          1.0681413296        1.2808769495       -0.3829744750
 H         -1.0758910842        1.2897636674        0.3284024871
  10
        -15.44880456
 C         -0.5953811616        0.0632675342        0.4645257764
 C          0.6021661483       -0.1128132180       -0.4740642170
 O          1.7761724308        0.0465086508        0.2876440562
 O         -1.8241572905       -0.0333820142       -0.2085032511
 H         -0.4954109116        1.0248799753        0.9849004429
 H         -0.5915708035       -0.7338729449        1.2097442824
 H          0.5538509160        0.6432597233       -1.2752385397
 H          0.5585294516       -1.1081150149       -0.9366554775
 H          2.5414039418       -0.1237464934       -0.2711487845
 H         -1.8859468658        0.6796514055       -0.8542144713
  10
        -15.44740079
 C         -0.5852113157        0.0130247967        0.4888087321
 C          0.5852358437       -0.0115223008       -0.4888964646
 O          1.7801260977        0.0125893905        0.2588090962
 O         -1.7801471999       -0.0139001163       -0.2587412001
 H         -0.5181075458        0.9226221813        1.1000456500
 H         -0.5109742239       -0.8577512303        1.1534057699
 H          0.5123685596        0.8605516007       -1.1519413461
 H          0.5167981477       -0.9199166304       -1.1017743602
 H          2.5263251068       -0.0011163069       -0.3490666381
 H         -2.5263673645       -0.0014881867        0.3492986378
  10
        -15.44592878
 C         -0.6995569354       -0.5897181266       -0.2633791029
 C          0.7052256416       -0.5241887978        0.3393660494
 O          1.4972231737        0.5102645487       -0.1766613855
 O         -1.4479891133        0.5134466146        0.1863531974
 H         -1.1698498282       -1.5338170922        0.0490369293
 H         -0.6255495186       -0.5877854031       -1.3633155879
 H          1.1925857592       -1.4998963997        0.1846361273
 H          0.6244984094       -0.3289612562        1.4099528499
 H          1.4582643993        0.4893762254       -1.1396247646
 H         -2.3290436323        0.4849669347       -0.2000588948
  10
        -15.44487480
 C         -0.6391116983       -0.3415243749       -0.4448868069
 C          0.6542434600       -0.4309565398        0.3846574558
 O          1.6311784867        0.3825091976       -0.2229484174
 O         -1.6779743488        0.3491584428        0.2001674981
 H         -0.9708974370       -1.3472481324       -0.7353740684
 H         -0.4164004748        0.2314925932       -1.3467873764
 H          1.0057440331       -1.4722249840        0.4323769269
 H          0.4482640151       -0.0868747351        1.4091322578
 H          2.4256722871        0.3928580071        0.3208531022
 H         -1.9298681598       -0.1269470677        0.9991679220
  10
        -15.44465376
 C         -0.6518281895       -0.4922395500        0.4059224807
 C          0.6548555631       -0.5055884038       -0.3840088757
 O          1.5258536307        0.4552686414        0.1686305317
 O         -1.5285413360        0.4382528013       -0.1882314058
 H         -0.4192095391       -0.2153313256        1.4407047892
 H         -1.1002654491       -1.4965378238        0.3940037700
 H          0.4206955881       -0.2758211338       -1.4299312687
 H          1.1093699902       -1.5056746060       -0.3281337681
 H          2.2635668938        0.5982622285       -0.4323449566
 H         -2.2675696402        0.6023202255        0.4057043269
  10
        -15.44448239
 C         -0.6289715362       -0.3994014999        0.4432067195
 C          0.6314564388       -0.4149451554       -0.4249675005
 O          1.6189235594        0.3740243733        0.2016680024
 O         -1.6211926198        0.3546317195       -0.2180207372
 H         -0.3637972136        0.0530819996        1.4062487680
 H         -0.9865946752       -1.4235732289        0.6176067048
 H          0.3633921931       -0.0075115693       -1.4072740225
 H          0.9953408182       -1.4437430375       -0.5537239982
 H          2.3667706356        0.4772490243       -0.3955234650
 H         -2.3687049324        0.4822658221        0.3748950888
