! pbe def2-sv(p) def2/J RI DEFGRID1 loosescf d4 GCP(DFT/SV(P)) printgap
%output
    printlevel normal
end
* xyz 0 1
C -2.4689391653 -0.4421357271 1.3821517136
C -2.0513303715 -0.4577505114 -0.094096415
H -2.9650535177 -0.4946288444 -0.6955083387
C -1.1518595018 -1.6641360849 -0.4288828705
C 0.2712591858 -1.247564771 -0.7930682514
C 0.7985900775 -0.2781615722 0.2637121988
H 0.5847752418 -0.7086824697 1.2483015064
C 0.0323428617 1.0446867653 0.1070441855
C -1.3834080479 0.8711039994 -0.3918648864
O -1.9678061361 1.7621119017 -0.957673197
C 2.2847964269 -0.0125707311 0.1941208284
C 2.991817171 -0.1020695574 -0.9204128564
C 2.9057823652 0.3995880081 1.4956007768
H -3.0930615712 0.4251332831 1.5876972102
H -3.0404318026 -1.3383764788 1.6138253051
H -1.6007260019 -0.4064703999 2.0353184148
H -1.1163176617 -2.3354174587 0.4319534112
H -1.5842755818 -2.2233607813 -1.2599253682
H 0.9090025153 -2.1310099949 -0.851329019
H 0.271123721 -0.7596528791 -1.7695156058
H -0.0216444771 1.5840496107 1.0564755287
H 0.5514242292 1.6982355726 -0.5989188586
H 4.0468798427 0.1138001399 -0.9340217925
H 2.5597477897 -0.3921128182 -1.8614041333
H 3.9569290336 0.6427231096 1.3677247985
H 2.3933623311 1.2708364979 1.9020365525
H 2.8219298792 -0.4057584809 2.2254411192
*
