  31
        -48.51992383
 C          1.3890286628        2.4748111532        1.1971801646
 C          1.6973298506        1.6790028549       -0.0705295109
 C          2.7748560025        0.5952070917        0.1902155317
 C          1.9835857738       -0.6762826253        0.1290921818
 C          2.3472634062       -1.9872375946        0.3397407467
 C          1.3824600682       -2.9764971904        0.2000418476
 C          0.0777324029       -2.6505548567       -0.1258618238
 C         -0.2925397750       -1.3296886768       -0.3405567871
 C          0.6772102058       -0.3428758578       -0.2245861691
 O          0.4917640370        0.9743433324       -0.4415089316
 O         -1.6027781673       -1.0208859900       -0.6853870634
 C         -2.2395749783       -0.1208606143        0.1196136201
 O         -1.8355295200        0.2550323473        1.1875911288
 N         -3.4037215086        0.2453620571       -0.4565106548
 C         -4.3296178264        1.1474033372        0.1772555250
 C          2.0714740105        2.6037574276       -1.2253966372
 H          1.0613611276        1.7971310518        1.9821502590
 H          2.2702042795        3.0181124756        1.5289989674
 H          0.5852971524        3.1799648978        1.0024234650
 H          3.5539783021        0.6124239293       -0.5755900505
 H          3.2505936918        0.7335925107        1.1616215540
 H          3.3614707505       -2.2398164567        0.6091949179
 H          1.6468603692       -4.0102235062        0.3599043756
 H         -0.6760520616       -3.4166855728       -0.2178272569
 H         -3.6296107458       -0.1435017260       -1.3572363731
 H         -5.2895594162        0.6583197006        0.3564928153
 H         -4.4887770559        2.0347066002       -0.4387691947
 H         -3.8927446701        1.4435729687        1.1293280484
 H          1.2598719565        3.3006569601       -1.4173730820
 H          2.2483066209        2.0230284380       -2.1280875479
 H          2.9697865092        3.1634810191       -0.9786722154
  31
        -48.51894449
 C          2.3023842121        2.7575580218        0.9739266557
 C          2.2654518280        1.7496016090       -0.1737414921
 C          3.0916265898        0.4785092857        0.1493896802
 C          2.0539837894       -0.6032696655        0.1423032111
 C          2.1543582671       -1.9581628670        0.3704091891
 C          1.0026339213       -2.7285994590        0.2993412274
 C         -0.2211583522       -2.1529135842        0.0030553175
 C         -0.3281634286       -0.7862967231       -0.2213377235
 C          0.8257710567       -0.0144255832       -0.1466514955
 O          0.8947467945        1.3213712627       -0.3375807405
 O         -1.5199142029       -0.1641108238       -0.5659868579
 C         -2.6464002003       -0.4444633846        0.1431388954
 O         -2.7161301027       -1.1864525007        1.0878714698
 N         -3.6784098743        0.2460995717       -0.3886891482
 C         -5.0029606290        0.2138959974        0.1751828680
 C          2.7088857181        2.3986055509       -1.4838914888
 H          1.6520839532        3.5985436459        0.7475219960
 H          1.9524361866        2.2886141645        1.8908524046
 H          3.3157700947        3.1212906735        1.1222301130
 H          3.8610363650        0.3003573539       -0.6041469889
 H          3.5822008354        0.5577677223        1.1211073307
 H          3.1083204598       -2.4076479069        0.6001612154
 H          1.0566052974       -3.7916627223        0.4746632751
 H         -1.1101693611       -2.7605958870       -0.0433016128
 H         -3.4820977944        0.8684276305       -1.1556768133
 H         -5.7301465371       -0.1109882017       -0.5713028905
 H         -5.2922681362        1.1967034182        0.5536725270
 H         -4.9879594700       -0.4977284146        0.9988881952
 H          3.7321255099        2.7549032610       -1.3989180581
 H          2.0585232326        3.2372297687       -1.7185725410
 H          2.6471817652        1.6770623000       -2.2955188365
  31
        -48.51850802
 C          2.5251120586        2.5538223770        1.2688807625
 C          2.0408880419        1.7330478597        0.0756372013
 C          2.9549495042        0.5120917361       -0.2007620048
 C          2.0103762460       -0.6449060437       -0.0767458338
 C          2.2019545915       -1.9965275005       -0.2540362745
 C          1.1214491213       -2.8508526900       -0.0792010822
 C         -0.1224646496       -2.3534516213        0.2662738314
 C         -0.3180480355       -0.9918475927        0.4545240639
 C          0.7599163837       -0.1369144314        0.2722792658
 O          0.7357589846        1.2049423086        0.4044556334
 O         -1.5629595593       -0.4899439480        0.8295784227
 C         -2.4606261293       -0.3055396953       -0.1775287838
 O         -2.2642474792       -0.5782798344       -1.3327968966
 N         -3.6011140428        0.2105740189        0.3276653145
 C         -4.7313570304        0.5429729664       -0.5002440759
 C          1.8829996944        2.6105084278       -1.1654093740
 H          2.5973076363        1.9220345982        2.1512966846
 H          3.5003155120        2.9837935024        1.0561318379
 H          1.8207972866        3.3551910148        1.4759336169
 H          3.4006108960        0.5651039609       -1.1950802841
 H          3.7636942388        0.4451651446        0.5298698269
 H          3.1718087005       -2.3820209537       -0.5294397520
 H          1.2481740527       -3.9127448647       -0.2210283817
 H         -0.9646172394       -3.0165740304        0.3896091046
 H         -3.6253127508        0.4291450213        1.3101735391
 H         -4.9261573253        1.6175089138       -0.4851044530
 H         -5.6240555954        0.0120066994       -0.1640708771
 H         -4.4897547001        0.2360985038       -1.5163603722
 H          1.5029693754        2.0150521956       -1.9925734935
 H          2.8396346190        3.0443128043       -1.4446998927
 H          1.1747270225        3.4101030544       -0.9641176303
  31
        -48.51849953
 C          2.5588697153        2.5362922485        1.2673524022
 C          2.0722727815        1.7366643880        0.0604128864
 C          2.9692717217        0.5035125592       -0.2183031448
 C          2.0132118513       -0.6420586577       -0.0772694362
 C          2.1915590407       -1.9980618180       -0.2342484343
 C          1.1018164532       -2.8386512462       -0.0506102345
 C         -0.1380945761       -2.3238707776        0.2837665121
 C         -0.3203344523       -0.9577306147        0.4517609539
 C          0.7669662281       -0.1165544134        0.2603519927
 O          0.7556080878        1.2273791095        0.3722151090
 O         -1.5586410322       -0.4354513616        0.8193440234
 C         -2.4836361166       -0.3244238304       -0.1736007540
 O         -2.3128679512       -0.6632710927       -1.3152983385
 N         -3.6178761776        0.2073262513        0.3298274590
 C         -4.7674312369        0.4923972636       -0.4890808450
 C          1.9411521604        2.6303951386       -1.1718746281
 H          2.6136405179        1.8928839049        2.1426929145
 H          3.5422770770        2.9538954170        1.0682291713
 H          1.8648044974        3.3457254087        1.4779399099
 H          3.4028591158        0.5443632455       -1.2187786850
 H          3.7865249369        0.4330336945        0.5022126586
 H          3.1583536156       -2.3975396149       -0.5003208850
 H          1.2184756886       -3.9038176361       -0.1756600943
 H         -0.9870784905       -2.9768712324        0.4139918900
 H         -3.6190785160        0.4837469938        1.2979820437
 H         -5.6500222150       -0.0232237021       -0.1058217162
 H         -4.5471244283        0.1338183210       -1.4930488187
 H         -4.9666502783        1.5656829131       -0.5254808592
 H          1.5550841691        2.0520796234       -2.0083065121
 H          2.9085895667        3.0471616954       -1.4396801528
 H          1.2482725555        3.4423879009       -0.9667809956
  31
        -48.51844985
 C          2.5625349630        2.7024334163        1.0321495420
 C          2.3140833427        1.7604153544       -0.1449471204
 C          3.1505765181        0.4606211874       -0.0298925442
 C          2.0988704302       -0.6037431352        0.0623899578
 C          2.2014158895       -1.9737017675        0.1789308906
 C          1.0325792150       -2.7157775497        0.2452785971
 C         -0.2114924179       -2.1062614464        0.1975159766
 C         -0.3213139352       -0.7266340555        0.0787738659
 C          0.8562533358        0.0171703292        0.0115265363
 O          0.9251591779        1.3636003436       -0.1047114275
 O         -1.4945618181        0.0058600714        0.0251552032
 C         -2.7368801571       -0.5347272212        0.0264440633
 O         -3.0234379954       -1.7040557636        0.0734388555
 N         -3.6339355818        0.4757663498       -0.0351321779
 C         -5.0557185364        0.2514660437       -0.0561975516
 C          2.5554639589        2.4744892571       -1.4741973870
 H          3.5958332893        3.0391566205        1.0320717322
 H          1.9069693572        3.5662347653        0.9582597814
 H          2.3530673419        2.1899266980        1.9683617353
 H          3.7900669977        0.3186490003       -0.9029232045
 H          3.7870712898        0.4726282249        0.8568001173
 H          3.1678092351       -2.4525127942        0.2169134509
 H          1.0837481795       -3.7895943915        0.3363564685
 H         -1.1066439045       -2.7023626771        0.2499519207
 H         -3.2798309995        1.4177606295       -0.0747339286
 H         -5.2156926429       -0.8240928967       -0.0038266233
 H         -5.4963984491        0.6374653210       -0.9776888193
 H         -5.5364672695        0.7304787927        0.7990548452
 H          3.5880149543        2.8071729930       -1.5398324136
 H          1.8982158052        3.3363987074       -1.5548140595
 H          2.3432512000        1.8007018058       -2.3012893629
  31
        -48.51436700
 C          1.9536104762        2.3615215901        1.3287592914
 C          1.5279429711        1.7016684705        0.0184434796
 C          2.5816811957        0.6777362937       -0.4753161991
 C          1.8690655618       -0.6330595828       -0.3294659233
 C          2.2907475622       -1.9252747265       -0.5547433561
 C          1.3965776591       -2.9622367317       -0.3255500392
 C          0.1105432412       -2.7049269957        0.1150773880
 C         -0.3268977585       -1.4030890436        0.3430888588
 C          0.5768893583       -0.3682264934        0.1166348061
 O          0.3192998689        0.9522147355        0.2777116401
 O         -1.5860520452       -1.2144379835        0.8692147938
 C         -2.4025694666       -0.1954927671        0.4767103311
 O         -3.2823457954        0.1771881219        1.2046387889
 N         -2.2044684030        0.2592181950       -0.7813485512
 C         -2.9401373790        1.3815828536       -1.3054232488
 C          1.2005278623        2.7521285764       -1.0403212524
 H          2.8441994907        2.9650518759        1.1748486224
 H          1.1520682686        2.9957721576        1.6984002512
 H          2.1615214328        1.5997787624        2.0769543292
 H          2.8633228110        0.8622981044       -1.5143748502
 H          3.4874164415        0.7154278858        0.1310581465
 H          3.2944817012       -2.1239370328       -0.8966317068
 H          1.7054236682       -3.9824824686       -0.4901881483
 H         -0.5810105561       -3.5099651574        0.3045969333
 H         -1.4348518638       -0.0936011152       -1.3268511946
 H         -2.2847978038        2.2433256776       -1.4507969907
 H         -3.7108569142        1.6337637355       -0.5796479549
 H         -3.4071193048        1.1181763279       -2.2558612617
 H          0.4025743121        3.3976850205       -0.6822814818
 H          0.8728780926        2.2714802018       -1.9600711777
 H          2.0783185043        3.3572077077       -1.2499833045
  31
        -48.51199828
 C          2.8103945417        2.2171774991        1.2213517530
 C          2.0966025391        1.7240355468       -0.0365248932
 C          2.8207717042        0.5026820220       -0.6590351813
 C          1.8549755037       -0.6164782898       -0.4125871944
 C          1.9387382419       -1.9637962066       -0.6829502786
 C          0.8658505832       -2.7787060509       -0.3437798505
 C         -0.2623354400       -2.2469277741        0.2543862093
 C         -0.3568774990       -0.8845526678        0.5312391614
 C          0.7171812409       -0.0709311462        0.1834355608
 O          0.7840093950        1.2623601676        0.3584287167
 O         -1.4549871311       -0.3645633226        1.1952297743
 C         -2.6389201380       -0.1645572395        0.5620643400
 O         -3.6052840696        0.1729078899        1.1905185367
 N         -2.6324742732       -0.3743332444       -0.7768689573
 C         -3.8116369612       -0.1798821518       -1.5826049317
 C          1.9077284891        2.8597518606       -1.0383912265
 H          2.2266226330        3.0049687738        1.6899727732
 H          2.9176827460        1.4001583802        1.9315303373
 H          3.7941419089        2.6042842666        0.9692127448
 H          2.9985553280        0.6441854359       -1.7274268421
 H          3.7827129045        0.3220954567       -0.1780449595
 H          2.8211720768       -2.3775541896       -1.1459074905
 H          0.9120392097       -3.8378312660       -0.5426481550
 H         -1.0908776690       -2.8825349187        0.5277742363
 H         -1.7678792838       -0.6043684400       -1.2415310252
 H         -4.6278350900        0.0730213994       -0.9083283076
 H         -4.0579293186       -1.0944761740       -2.1254253055
 H         -3.6674311409        0.6342933175       -2.2959044666
 H          1.3713203782        2.5028930758       -1.9149434208
 H          2.8737219443        3.2506924660       -1.3464016025
 H          1.3293020232        3.6588918600       -0.5827111039
  31
        -48.51197493
 C          1.9581436408        2.8963791971        0.9013593776
 C          2.1079367781        1.7345145364       -0.0768695843
 C          2.8502116369        0.5268071199        0.5508972089
 C          1.8733022755       -0.5947375116        0.3670647399
 C          1.9629032613       -1.9350437449        0.6685489435
 C          0.8763367510       -2.7542667707        0.3884619573
 C         -0.2709185315       -2.2336690087       -0.1826278767
 C         -0.3716794431       -0.8782285136       -0.4900880486
 C          0.7164887635       -0.0602086691       -0.2017213846
 O          0.7808328115        1.2679051124       -0.4129217204
 O         -1.4897893134       -0.3685314761       -1.1276475313
 C         -2.6646894901       -0.1923920865       -0.4710310575
 O         -3.6507052699        0.1223400408       -1.0805316946
 N         -2.6263759394       -0.3967755566        0.8683265674
 C         -3.7910449995       -0.2163279714        1.6981686793
 C          2.7779558803        2.1923537145       -1.3716469578
 H          1.4512685044        2.5644282290        1.8048572604
 H          2.9356684472        3.2907353149        1.1655085169
 H          1.3670521534        3.6861681180        0.4456388504
 H          3.7942465179        0.3306207031        0.0414062587
 H          3.0655920917        0.6947701888        1.6084872343
 H          2.8600309175       -2.3402472874        1.1103365394
 H          0.9266239177       -3.8082331187        0.6122051690
 H         -1.1101937833       -2.8733210780       -0.4102696900
 H         -1.7463379070       -0.5987306686        1.3167568371
 H         -4.0105787748       -1.1315190865        2.2513615871
 H         -4.6256060625        0.0191912526        1.0402505975
 H         -3.6448672937        0.6043374387        2.4035856358
 H          3.7711974892        2.5820414138       -1.1647706960
 H          2.1801240657        2.9700337807       -1.8394262677
 H          2.8574135437        1.3568920813       -2.0637975543
  31
        -48.51195839
 C          1.9886003579        2.8880504914        0.9091880117
 C          2.1290796540        1.7335471181       -0.0793266370
 C          2.8666713453        0.5171424988        0.5371931363
 C          1.8771783619       -0.5946868103        0.3621384123
 C          1.9556213118       -1.9352650498        0.6656074221
 C          0.8595895854       -2.7443334921        0.3932159653
 C         -0.2855350386       -2.2137727288       -0.1729487764
 C         -0.3751644309       -0.8578236118       -0.4819865251
 C          0.7223824385       -0.0498789593       -0.2008655748
 O          0.7983240536        1.2771126215       -0.4148228543
 O         -1.4898909935       -0.3368054288       -1.1157468891
 C         -2.6750118017       -0.1934176773       -0.4695951026
 O         -3.6599145129        0.1139598256       -1.0846899873
 N         -2.6473569735       -0.4177536538        0.8669194267
 C         -3.8232231900       -0.2663832761        1.6867722767
 C          2.7973416754        2.1988450203       -1.3722353977
 H          2.9688488281        3.2768044792        1.1715601768
 H          1.3980183934        3.6836224477        0.4629485544
 H          1.4851465561        2.5504902045        1.8125316731
 H          3.8024290898        0.3124536471        0.0157328247
 H          3.0967760112        0.6808498239        1.5922609304
 H          2.8513192979       -2.3483385487        1.1029675340
 H          0.9008076268       -3.7983477254        0.6186186762
 H         -1.1318268459       -2.8461433604       -0.3951148210
 H         -1.7678300355       -0.6051673787        1.3226649893
 H         -3.7022296410        0.5544607144        2.3968033635
 H         -4.0269176183       -1.1885657786        2.2342122021
 H         -4.6567853404       -0.0467231611        1.0221564865
 H          3.7940502590        2.5796269597       -1.1654295410
 H          2.2032368190        2.9850655309       -1.8303761402
 H          2.8683490150        1.3694774134       -2.0725489711
  31
        -48.51193823
 C          2.8730901180        2.2088193699        1.2143523045
 C          2.1611554896        1.7201858515       -0.0463699096
 C          2.8602453005        0.4736186935       -0.6470978773
 C          1.8620916639       -0.6169009656       -0.4012625648
 C          1.9136514624       -1.9686255311       -0.6573006483
 C          0.8156141880       -2.7512958120       -0.3229623033
 C         -0.3052743575       -2.1837697120        0.2556605676
 C         -0.3682486632       -0.8159688079        0.5156280845
 C          0.7317914929       -0.0351153288        0.1743843241
 O          0.8325464252        1.2973842234        0.3379537417
 O         -1.4566718163       -0.2538076310        1.1593130278
 C         -2.6696158271       -0.1582986844        0.5573546162
 O         -3.6311441949        0.1754950577        1.1953078156
 N         -2.6953985958       -0.4557775194       -0.7649042862
 C         -3.9066066885       -0.3629277163       -1.5408467423
 C          2.0136319878        2.8492159700       -1.0627260791
 H          2.9540323648        1.3964913957        1.9333203228
 H          3.8680806209        2.5708336308        0.9691265206
 H          2.3026265340        3.0142334937        1.6691584879
 H          3.0547254115        0.5989905624       -1.7145806408
 H          3.8111094592        0.2727553873       -0.1523055381
 H          2.7903005281       -2.4103122980       -1.1051543823
 H          0.8362011888       -3.8134739745       -0.5095591257
 H         -1.1528026544       -2.7956588697        0.5255907463
 H         -1.8334413790       -0.6574620963       -1.2473165186
 H         -4.1205128791       -1.3162909356       -2.0277049667
 H         -3.8266367867        0.4185626462       -2.2994180174
 H         -4.7144745622       -0.1161104986       -0.8543874520
 H          1.4504430269        3.6677913677       -0.6227407473
 H          1.4786012067        2.4963402801       -1.9417146266
 H          2.9928967804        3.2119821860       -1.3632458721
  31
        -48.51192202
 C          2.8889454339        2.2093565412        1.2122882314
 C          2.1820052948        1.7191654963       -0.0506401657
 C          2.8750295617        0.4635646152       -0.6395027918
 C          1.8657448367       -0.6171169072       -0.3957654512
 C          1.9079089535       -1.9704611068       -0.6448807730
 C          0.8011124409       -2.7422108754       -0.3142368827
 C         -0.3186404814       -2.1625822500        0.2544644029
 C         -0.3722108822       -0.7929534183        0.5071709445
 C          0.7364881395       -0.0229741653        0.1691519484
 O          0.8474037851        1.3094895277        0.3267346181
 O         -1.4575908713       -0.2171125251        1.1430575118
 C         -2.6805073005       -0.1585137224        0.5562934008
 O         -3.6406974384        0.1651472795        1.2014923816
 N         -2.7168049293       -0.4775514052       -0.7607105537
 C         -3.9386999975       -0.4170776372       -1.5230965889
 C          2.0511945846        2.8432691400       -1.0747530386
 H          2.9549878406        1.4014791578        1.9377641657
 H          3.8898367332        2.5586192752        0.9727058505
 H          2.3237211365        3.0243013655        1.6565707204
 H          3.0789085825        0.5817018744       -1.7060512304
 H          3.8202124697        0.2571107203       -0.1362000459
 H          2.7839621662       -2.4215697752       -1.0844175919
 H          0.8140282165       -3.8054706511       -0.4952684254
 H         -1.1725085625       -2.7665661035        0.5224452178
 H         -1.8562839550       -0.6630675700       -1.2521588241
 H         -3.8889193476        0.3665035480       -2.2821028101
 H         -4.7451827871       -0.1921449077       -0.8277002168
 H         -4.1316211123       -1.3757097919       -2.0079062256
 H          3.0357148870        3.1946936685       -1.3715379789
 H          1.4933350361        3.6699987418       -0.6433144720
 H          1.5180985867        2.4900238360       -1.9547649918
  31
        -48.51190335
 C          2.9073421254        2.2197170822        1.2074303881
 C          2.2032724059        1.7174641222       -0.0522413047
 C          2.8924881661        0.4518770251       -0.6240349918
 C          1.8702231182       -0.6181607623       -0.3878042379
 C          1.9014190635       -1.9722537086       -0.6346891234
 C          0.7848934098       -2.7327427052       -0.3110749817
 C         -0.3334591958       -2.1416117740        0.2485874412
 C         -0.3764380309       -0.7709032363        0.4977149495
 C          0.7424011200       -0.0123110088        0.1672349418
 O          0.8649379935        1.3191465877        0.3241630287
 O         -1.4590859025       -0.1808899338        1.1244171326
 C         -2.6904748189       -0.1550663451        0.5531376878
 O         -3.6470341605        0.1682596332        1.2039513267
 N         -2.7390798338       -0.5013283221       -0.7565795192
 C         -3.9726540937       -0.4801222551       -1.5020229052
 C          2.0821094756        2.8298479203       -1.0904834066
 H          3.9117607260        2.5588535230        0.9679935870
 H          2.3456675131        3.0444348779        1.6379201408
 H          2.9643294895        1.4213047118        1.9440336300
 H          3.1131614858        0.5619843104       -1.6879958802
 H          3.8282553960        0.2391421597       -0.1057382152
 H          2.7763724206       -2.4324769445       -1.0668733651
 H          0.7888920786       -3.7964214105       -0.4901733720
 H         -1.1943202808       -2.7378409371        0.5117815791
 H         -1.8827710270       -0.6851554691       -1.2558224055
 H         -3.9434849982        0.2796498470       -2.2858560672
 H         -4.7717486030       -0.2432933314       -0.8019054387
 H         -4.1608122370       -1.4558975133       -1.9537534268
 H          1.5537765203        2.4674447087       -1.9696551412
 H          3.0693398995        3.1754848085       -1.3850783746
 H          1.5234415419        3.6628852751       -0.6724031178
  31
        -48.51187079
 C          2.1570686931        2.8876215538        0.9110945051
 C          2.2187068645        1.7261871239       -0.0770114291
 C          2.9195774402        0.4793733629        0.5208896538
 C          1.8871524832       -0.5936174309        0.3514224878
 C          1.9249302978       -1.9407581635        0.6329056237
 C          0.7957198017       -2.7060654363        0.3707249578
 C         -0.3416455338       -2.1264836000       -0.1621177824
 C         -0.3920033933       -0.7622777929       -0.4439710928
 C          0.7404286412        0.0009963743       -0.1764061985
 O          0.8608824501        1.3272704859       -0.3745197305
 O         -1.4936774615       -0.1828175389       -1.0459614086
 C         -2.7170896321       -0.1806100688       -0.4572152179
 O         -3.6884382014        0.1253107013       -1.0945214959
 N         -2.7413687083       -0.5267506343        0.8532512893
 C         -3.9650342973       -0.5261869432        1.6152812485
 C          2.8706801516        2.1588545755       -1.3897253102
 H          1.6618339413        2.5753248101        1.8278863780
 H          3.1607400867        3.2309310254        1.1470742422
 H          1.5926743045        3.7088657725        0.4777296166
 H          3.8407311717        0.2450732018       -0.0137109476
 H          3.1681617484        0.6262254576        1.5743512936
 H          2.8145263828       -2.3921201225        1.0439971799
 H          0.8044899297       -3.7649262923        0.5762617277
 H         -1.2118524855       -2.7279095402       -0.3788633610
 H         -1.8749902773       -0.6898914477        1.3422035636
 H         -4.1294512016       -1.5044704976        2.0708396752
 H         -4.7776258767       -0.3050104960        0.9256643393
 H         -3.9390963861        0.2351919065        2.3976209862
 H          3.8877874857        2.4981011824       -1.2119293008
 H          2.2976906859        2.9677631699       -1.8350793897
 H          2.8876190484        1.3248224708       -2.0879229858
