! pbe def2-sv(p) def2/J RI DEFGRID1 loosescf d4 GCP(DFT/SV(P)) printgap
%output
    printlevel normal
end
* xyz 0 1
C -2.4637057646 -1.2375542444 -0.1929222109
C -1.7884711451 0.0945080344 0.0073978821
O -2.4011998801 1.0630899245 0.3852684717
C -0.299541818 0.1879546507 -0.2982920121
C 0.4124121068 -1.1261047695 -0.6095141563
C 1.8800495967 -0.8607267012 -0.94326514
C 2.5795849509 -0.1525477229 0.2124570298
C 1.8688178056 1.156978304 0.53974199
C 0.4031759708 0.8984439683 0.8679680858
H -3.5161803518 -1.1531833336 0.0654296179
H -2.3703781776 -1.5496042897 -1.2304654794
H -1.9948604608 -1.9928526355 0.4326488234
H -0.2236196787 0.8419746857 -1.1776004277
H 0.3611551201 -1.788817687 0.257189497
H -0.0599094786 -1.6308215799 -1.45406553
H 2.3829258972 -1.805691091 -1.1598702441
H 1.9408580428 -0.2380269823 -1.8390616936
H 2.5704230287 -0.7996870681 1.0926910869
H 3.6217776774 0.0426947843 -0.0478673914
H 2.3547513454 1.6436633808 1.3875963883
H 1.9367284018 1.8311439131 -0.3171694395
H 0.3337482211 0.269803672 1.7594819687
H -0.1131102448 1.8361116065 1.0778320513
*
