! r2scan-3c def2/J RI DEFGRID2 scfconv6 printgap
%output
    printlevel normal
end
* xyz 0 1
C -2.8407046463 -0.5991401181 0.0535170298
O -1.4840744225 -0.9172323617 0.3557334456
C -0.5356488778 -0.0994730016 -0.1097979683
O -0.7310564367 0.8900527217 -0.7522005702
C 0.8236298232 -0.6436850742 0.2995876558
Cl 2.0820752281 0.5815953366 0.0687939612
H -2.8917299013 0.3566274326 -0.4702111955
H -3.3896925514 -0.5466215397 0.9928953414
H -3.2495574195 -1.3925489644 -0.5722794729
H 1.0691991356 -1.50520999 -0.3234353965
H 0.8079618844 -0.9425058202 1.3472611308
*
