! pbe def2-sv(p) def2/J RI DEFGRID1 loosescf d4 GCP(DFT/SV(P)) printgap
%output
    printlevel normal
end
* xyz 0 1
C -2.4924578397 -0.4633457865 -0.2314850992
C -1.0702878353 -0.1823197268 0.2584877664
H -1.0175460822 -0.3863380882 1.3395756419
C -0.6386981042 1.282252568 0.0085717873
H -1.2679724362 1.7265571214 -0.7706193951
C 0.8249551221 1.3099503251 -0.490688534
H 1.2205293797 2.3184567538 -0.3318220863
C 1.6630897234 0.3097759462 0.3289503526
H 2.6860202336 0.2971657024 -0.0680291094
C 1.0849648192 -1.1145500713 0.1404092743
H 1.0292331624 -1.6076807358 1.1380468552
O -0.2082627858 -1.0945658002 -0.4167009562
O 1.9155560483 -1.8140259021 -0.7167381011
O 1.6349304352 0.7133159717 1.6790717026
O 0.9290123896 1.0572571714 -1.8602003313
O -0.8179298998 2.0705321722 1.1493499027
O -2.9156753574 -1.7580370873 0.0971007026
H -2.5284758257 -0.3039914875 -1.3184423638
H -3.1800975823 0.22755822 0.2581099858
H 1.4630393858 -2.6144455714 -1.0096054153
H 2.305918796 0.2301671207 2.1731785524
H 0.6369035029 0.1503573752 -2.0257354936
H -0.1263750042 1.8370627486 1.785171872
H -2.2665675049 -2.3767425365 -0.2583009638
*
