  12
        -16.98825262
 C          2.2913878305        0.1481929603        0.0000575496
 C          0.8092878325        0.2680659359       -0.0000640188
 C          0.0486483820        1.3934822720       -0.0000686029
 C         -1.3420517185        1.1304684425        0.0000411755
 C         -1.6203421754       -0.1948038450        0.0000302653
 S         -0.1896968029       -1.1527388681       -0.0000152704
 H          2.6340113308       -0.3945443437        0.8807947747
 H          2.6340676766       -0.3956885865       -0.8799019643
 H          2.7438228510        1.1370588410       -0.0005705542
 H          0.4642424824        2.3857241375       -0.0000120215
 H         -2.0943144165        1.8989624883        0.0001432484
 H         -2.5754389575       -0.6809822676        0.0000755211
