! pbe def2-sv(p) def2/J RI DEFGRID1 loosescf d4 GCP(DFT/SV(P)) printgap
%output
    printlevel normal
end
* xyz 0 1
C -1.8921548291 -1.1796772726 -0.3974180064
C -1.0473229104 -0.5256556135 0.7273231957
H -1.6024914529 -0.6007260916 1.6695573273
C -0.7614330867 0.9779954898 0.5237434552
H -1.6686106069 1.4643369033 0.1487417988
C 0.3925888129 1.2024172333 -0.4705512273
H 0.6388375162 2.2787480926 -0.458659197
C 1.6296990224 0.398019191 -0.0165551629
H 2.3966808319 0.4603488741 -0.8034014269
C 1.2340424614 -1.0838907623 0.1230375671
H 2.0366248265 -1.6342970933 0.6287293547
O 0.1362104964 -1.2605784025 0.9871063926
O 1.0590146766 -1.6538608064 -1.1326312541
O 2.1374407009 0.8430635287 1.2178170875
O 0.069942589 0.8169222667 -1.7890222773
O -0.478814608 1.5910796193 1.7516895641
O -2.423667175 -0.1995405433 -1.2813074826
H -2.7114512 -1.7437286724 0.0604109603
H -1.2564912783 -1.8840172759 -0.9451645595
H 0.6908439377 -0.9705052254 -1.7242185241
H 2.4290177765 1.7582649947 1.1267447178
H -0.8943996056 0.6873441864 -1.8413752103
H 0.3100609924 1.1611858819 2.1201375818
H -3.0096278522 -0.6410768359 -1.9052289138
*
