! r2scan-3c def2/J RI DEFGRID2 scfconv6 printgap
%output
    printlevel normal
end
* xyz 0 1
C -2.6552671467 -0.5611987747 0.7708866591
C -1.8742366675 -0.538323071 -0.5447337344
C -0.4043051559 -0.3320832534 -0.2924029309
C 0.415847745 -1.4536763533 -0.2196704797
C 1.7686622319 -1.3479995718 0.0378693052
C 2.3286501742 -0.0967622512 0.2286307849
C 1.5242692416 1.0235110872 0.1622634682
C 0.1589469594 0.928647333 -0.0907721388
C -0.6276890122 2.208216563 -0.1402440299
H -3.7142363559 -0.725624549 0.5830865563
H -2.5388639799 0.3783389869 1.3057691112
H -2.2878559022 -1.361511134 1.4095020538
H -2.2695364612 0.2430569438 -1.1958914593
H -2.0168424693 -1.492899023 -1.0557994401
H -0.0214034097 -2.4309177984 -0.3718631533
H 2.3827548729 -2.2352236997 0.0877180486
H 3.3853062156 0.0045799966 0.428803592
H 1.9579971601 2.0026768098 0.3123882487
H -0.2785254499 2.8244459835 -0.9691095072
H -1.692013456 2.0419609492 -0.2622418947
H -0.4725354029 2.7730292801 0.7783840088
*
