! pbe def2-sv(p) def2/J RI DEFGRID1 loosescf d4 GCP(DFT/SV(P)) printgap
%output
    printlevel normal
end
* xyz 0 1
C -2.4379923506 -1.2000711052 0.0301177704
C -1.0659317709 -0.629986328 0.4666649431
H -1.0110982001 -0.5598871597 1.5653027556
C -0.8131796607 0.779603127 -0.091633443
H -0.9556643972 0.7707417983 -1.182442262
C 0.6244733586 1.2161459996 0.208826629
H 0.7491336815 1.3148488101 1.3009710426
C 1.6083161718 0.1597456234 -0.2895600577
H 1.5245467818 0.0640453319 -1.3834578033
C 1.2297877274 -1.1923849521 0.3333626721
H 1.3394295463 -1.1203423863 1.4383814058
O -0.0873178558 -1.5430087369 0.0087058951
O 2.0789349752 -2.1672246655 -0.1732470291
O 2.9064341877 0.5535574573 0.0760253687
O 0.8327413812 2.4634882318 -0.4067014131
O -1.7228478006 1.6685367596 0.5153809051
O -3.2782923085 -0.2855228517 -0.6064708132
H -2.9363484885 -1.6367941611 0.9071252376
H -2.2459736688 -1.997117121 -0.6926313376
H 1.5863017096 -2.9954314711 -0.2072285275
H 3.4952270679 -0.1930952211 -0.0872677942
H 1.7808244286 2.6404393427 -0.3802695139
H -1.4383065242 2.5607914032 0.2790704209
H -3.2873033987 0.5327938201 -0.0891699878
*
