! r2scan-3c def2/J RI DEFGRID2 scfconv6 printgap
%output
    printlevel normal
end
* xyz 0 1
C 1.0371771824 1.2581414849 0.2176543093
C 0.5471956756 0.0002432093 -0.5047576465
C 1.0372042973 -1.2576575314 0.2174450725
C -0.9652354351 0.0006710218 -0.5080739702
O -1.6482861825 -0.0014546443 0.4760049339
H 2.1229789024 1.2593556472 0.2736676777
H 0.6319353349 1.2849515057 1.2261557224
H 0.7148992803 2.1534602792 -0.3096438726
H 0.9149096822 0.0003520051 -1.5346989763
H 2.1230074984 -1.2583081049 0.2744620505
H 0.7156854724 -2.1528260659 -0.3106264194
H 0.6308998587 -1.2849686534 1.2255058778
H -1.4278158361 0.0044124399 -1.5161698791
*
