! r2scan-3c def2/J RI DEFGRID2 scfconv6 printgap
%output
    printlevel normal
end
* xyz 0 1
C -2.3310641859 -1.2326105795 -0.0647264478
N -1.6085361813 0.0001087528 0.1366026987
C -2.3308577491 1.2326413683 -0.066624732
C -0.23176188 -6.5332e-06 0.0510400163
C 0.4976669173 1.1965398643 0.0247926506
C 1.8777521805 1.189929179 -0.0149800478
C 2.5836655617 -5.53177e-05 -0.0354247168
C 1.8776783509 -1.1899917073 -0.0159851315
C 0.4975673404 -1.196556373 0.0237529395
H -3.3987507623 -1.0431240194 0.0226137451
H -2.0588886148 -1.9602361763 0.7027342836
H -2.1379920839 -1.6739244865 -1.0507272575
H -3.3986760298 1.0429974839 0.0185056965
H -2.1358193379 1.6736144387 -1.0523765482
H -2.0604416284 1.960671808 0.7010892619
H -0.0087479855 2.1477211897 0.0351328612
H 2.407353473 2.1320782759 -0.0339681449
H 3.6624857182 -5.87582e-05 -0.0689732973
H 2.4071850513 -2.1321891706 -0.0358799335
H -0.0088535563 -2.1477498795 0.0331980029
*
