! pbe def2-sv(p) def2/J RI DEFGRID1 loosescf d4 GCP(DFT/SV(P)) printgap
%output
    printlevel normal
end
* xyz 0 1
C -5.0599991472 -0.6835652284 0.0308496595
C -4.3038511326 -1.3714514591 -0.9034374089
C -2.9257655794 -1.2576494069 -0.9006069735
C -2.2897757596 -0.4426720364 0.0314574255
C -3.0548787459 0.2407946872 0.971505174
C -4.4322468284 0.1171901222 0.970226218
C -0.8192768048 -0.3353778252 0.0255037038
C -0.0492141723 -1.4927152873 0.0684176731
C 1.3333465167 -1.4327829909 0.0698949087
C 1.9834714868 -0.2011687035 0.0226845253
C 1.2240785513 0.9663841413 -0.0350735508
C -0.1678130676 0.8982968707 -0.0339556
Cl -1.0671709214 2.359062399 -0.1628148499
Cl 2.0139635392 2.4875416405 -0.1142027272
Cl 3.6963676438 -0.1156367358 0.0281148445
Cl 2.2532631502 -2.8822783898 0.1330417849
H -6.1359961145 -0.7730721605 0.0281491338
H -4.7888055686 -1.9981203525 -1.6370620857
H -2.3343688571 -1.7843599095 -1.6349531301
H -2.5674842937 0.8533903398 1.7144111235
H -5.017563728 0.648260754 1.7059418265
H -0.5384799693 -2.4526179471 0.1157415251
*
