! r2scan-3c def2/J RI DEFGRID2 scfconv6 printgap
%output
    printlevel normal
end
* xyz 0 1
C -2.1862507424 -0.908198766 -0.1473324166
C -1.1203625545 -0.3225733267 0.801319126
H -1.5738763003 -0.2868621021 1.8003567273
C -0.7331673107 1.1316162918 0.4619132801
H -1.5971280849 1.6126873726 -0.0264043184
C 0.4738143631 1.2379446183 -0.4866592223
H 0.8410491269 2.2759870176 -0.4680776384
C 1.6167743853 0.3287931679 0.0270318462
H 2.4496454482 0.3597105808 -0.6841728037
C 1.0921966141 -1.1136029729 0.1160963351
H 1.8322008415 -1.7554504577 0.612600337
O -0.0186266681 -1.2035241312 0.9712242723
O 0.8500745408 -1.647403829 -1.160062604
O 2.1241319583 0.7717891803 1.2509607294
O 0.1401091483 0.9432278339 -1.8215721189
O -0.4671639453 1.7628321371 1.697640673
O -1.781043563 -0.9777012648 -1.4916096861
H -3.0743460026 -0.2727098914 -0.1218474896
H -2.4512223074 -1.9045730069 0.2232999794
H 0.8768511808 -0.9261676626 -1.8121401133
H 1.4041361315 0.7638689389 1.9011336528
H -0.694566843 0.4269985109 -1.8491995454
H -0.2041653521 2.6783677294 1.544601235
H -1.0488052019 -1.6218929533 -1.5393937393
*
