! pbe def2-sv(p) def2/J RI DEFGRID1 loosescf d4 GCP(DFT/SV(P)) printgap
%output
    printlevel normal
end
* xyz 0 1
C -1.3606305393 -0.8890870749 0.2235570101
S 2.64766e-05 0.1807312361 -0.4318406954
O 0.000182236 1.3818879195 0.4008363871
C 1.3603960023 -0.8894440165 0.2235635623
H -2.3017540872 -0.4044245529 -0.0146062761
H -1.2611523618 -0.9836669116 1.2989949416
H -1.3073388426 -1.8565025445 -0.2618072791
H 2.3016321816 -0.4050489827 -0.014707569
H 1.3067602165 -1.856868212 -0.2617365699
H 1.2609128393 -0.9838986287 1.2990118821
*
