! pbe def2-sv(p) def2/J RI DEFGRID1 loosescf d4 GCP(DFT/SV(P)) printgap
%output
    printlevel normal
end
* xyz 0 1
C 1.9886003579 2.8880504914 0.9091880117
C 2.129079654 1.7335471181 -0.079326637
C 2.8666713453 0.5171424988 0.5371931363
C 1.8771783619 -0.5946868103 0.3621384123
C 1.9556213118 -1.9352650498 0.6656074221
C 0.8595895854 -2.7443334921 0.3932159653
C -0.2855350386 -2.2137727288 -0.1729487764
C -0.3751644309 -0.8578236118 -0.4819865251
C 0.7223824385 -0.0498789593 -0.2008655748
O 0.7983240536 1.2771126215 -0.4148228543
O -1.4898909935 -0.3368054288 -1.1157468891
C -2.6750118017 -0.1934176773 -0.4695951026
O -3.6599145129 0.1139598256 -1.0846899873
N -2.6473569735 -0.4177536538 0.8669194267
C -3.82322319 -0.2663832761 1.6867722767
C 2.7973416754 2.1988450203 -1.3722353977
H 2.9688488281 3.2768044792 1.1715601768
H 1.3980183934 3.6836224477 0.4629485544
H 1.4851465561 2.5504902045 1.8125316731
H 3.8024290898 0.3124536471 0.0157328247
H 3.0967760112 0.6808498239 1.5922609304
H 2.8513192979 -2.3483385487 1.102967534
H 0.9008076268 -3.7983477254 0.6186186762
H -1.1318268459 -2.8461433604 -0.395114821
H -1.7678300355 -0.6051673787 1.3226649893
H -3.702229641 0.5544607144 2.3968033635
H -4.0269176183 -1.1885657786 2.2342122021
H -4.6567853404 -0.0467231611 1.0221564865
H 3.794050259 2.5796269597 -1.165429541
H 2.203236819 2.9850655309 -1.8303761402
H 2.868349015 1.3694774134 -2.0725489711
*
