! pbe def2-sv(p) def2/J RI DEFGRID1 loosescf d4 GCP(DFT/SV(P)) printgap
%output
    printlevel normal
end
* xyz 0 1
C 0.7261947326 -1.1978320583 0.2460160604
C -0.7252449469 -1.1896101245 -0.2494671403
N -1.4450943134 5.65645e-05 0.1684851431
C -0.7253025275 1.1897456673 -0.2495182837
C 0.7261058275 1.1976869132 0.2460505101
N 1.3836061341 -4.38239e-05 -0.2464524687
H 1.2526305629 -2.0717010315 -0.1431701042
H 0.7289394336 -1.2522286491 1.3524321696
H -0.7254644923 -1.2039115076 -1.3421901585
H -1.2564545861 -2.0704642185 0.1171252313
H -1.5300234126 0.0001005333 1.1829606544
H -0.7254827197 1.2039681124 -1.3422545707
H -1.2565627782 2.0705983343 0.1170092029
H 1.2525367891 2.0715855531 -0.1430423146
H 0.7288034147 1.252026189 1.3524832776
H 2.3646824813 -3.5941e-05 0.0146028471
*
