! pbe def2-sv(p) def2/J RI DEFGRID1 loosescf d4 GCP(DFT/SV(P)) printgap
%output
    printlevel normal
end
* xyz 0 1
C -2.3359999034 -0.8088895502 0.6811951534
C -0.877616115 -0.3237745197 0.7610047018
H -0.6379663718 -0.042952607 1.7977239917
C -0.6526704474 0.8927092873 -0.1542227023
H -0.9417144121 0.6227594247 -1.1763039157
C 0.8342113517 1.3285150228 -0.1436322438
H 0.9409732883 2.1788175621 0.5438500723
C 1.7537849013 0.1842720135 0.3462876083
H 2.7365408107 0.317478677 -0.1288481778
C 1.1853696987 -1.1501476118 -0.1427213945
H 1.836233012 -1.9785428253 0.1796236874
O -0.070399426 -1.4381287447 0.3852819571
O 1.1483924374 -1.0730652843 -1.5459974005
O 1.8713254488 0.1235188902 1.7452071412
O 1.2616754042 1.8037129732 -1.3878723389
O -1.5102015418 1.9449984567 0.1986728054
O -2.5991182126 -1.4456563008 -0.5373211027
H -3.0072332813 0.0493375818 0.7419092358
H -2.5292583312 -1.4887624899 1.5224759488
H 0.7150100529 -1.8637820233 -1.8887056794
H 2.3689852682 0.891104359 2.048899718
H 1.2258265933 1.0682673362 -2.014856565
H -1.2995819096 2.2449512201 1.0909083609
H -1.9144686152 -2.1174338823 -0.6509783942
*
