! r2scan-3c def2/J RI DEFGRID2 scfconv6 printgap
%output
    printlevel normal
end
* xyz 0 1
C 1.8419456349 -0.4225592765 -0.4833903341
C 0.8298103244 -0.3643640399 0.6633460903
C -0.4694434515 0.201717889 0.1508228319
O -0.8007567226 1.3549435073 0.198764637
O -1.2354362944 -0.742437864 -0.4126186607
H 2.0080761648 0.5719341115 -0.8908829892
H 2.7894098396 -0.8136296753 -0.1218548409
H 1.4772338637 -1.0702154251 -1.2769825034
H 0.6507793537 -1.3668882721 1.0513772152
H 1.202653003 0.282025822 1.4575552338
H -2.0502764183 -0.3523290521 -0.7663353975
*
