! r2scan-3c def2/J RI DEFGRID2 scfconv6 printgap
%output
    printlevel normal
end
* xyz 0 1
C -1.7280056026 0.3487984409 0.5883762391
C -0.8817505197 0.3411407928 -0.6798560313
C 0.5842145487 -0.0710176002 -0.48174756
C 1.3317564158 0.8950236693 0.4350018665
C 0.7115795848 -1.5017424075 0.0371684088
H -1.7681042035 -0.6397472299 1.0378184848
H -2.7453742772 0.6515855493 0.3492666659
H -1.3316170094 1.048782794 1.3189433353
H -1.3367325405 -0.3424022834 -1.4013833534
H -0.9012674645 1.3410699908 -1.1209812555
H 1.0576216419 -0.0293334564 -1.470824226
H 0.960863426 0.8272433732 1.4545683672
H 1.2149022348 1.9201860084 0.0902325422
H 2.3931852396 0.6566741314 0.4464970907
H 1.7549293567 -1.8100282238 0.0367156609
H 0.1510582587 -2.189980205 -0.5917845643
H 0.3384816997 -1.5794706038 1.0552139693
*
