! pbe def2-sv(p) def2/J RI DEFGRID1 loosescf d4 GCP(DFT/SV(P)) printgap
%output
    printlevel normal
end
* xyz 0 1
C -2.3933568766 -0.787417903 -0.06022261
C -1.0113373856 -0.2799040134 0.3706817325
H -1.0689749803 0.0793420722 1.4115238075
C -0.515488694 0.8605584655 -0.5229214708
H -0.40722705 0.5069921182 -1.5537156305
C 0.8509873563 1.3448744211 -0.0120360251
H 0.6844688187 1.934135352 0.9083025995
C 1.7549474899 0.16854147 0.3874469437
H 2.7248814785 0.3159573565 -0.1055802128
C 1.1791465398 -1.1729215573 -0.096724987
H 1.759916612 -2.0001721522 0.3531786414
O -0.1278534 -1.4025168493 0.3433201181
O 1.2842057474 -1.2137098695 -1.4872651608
O 1.8708460172 0.1832594637 1.7879242025
O 1.5078026637 2.1262976038 -0.9721210225
O -1.4291338651 1.9269027126 -0.585455524
O -2.9199544864 -1.701129068 0.8611719765
H -2.3042898045 -1.2422334455 -1.0575867325
H -3.0945543276 0.0473526536 -0.1147627766
H 0.8684027554 -2.0233459499 -1.8088114802
H 2.487187693 -0.5025265688 2.0683772837
H 0.8495218811 2.6941495824 -1.3928584366
H -1.5965156344 2.2503996185 0.3089406452
H -2.2440083538 -2.3695595824 1.0260160542
*
