  22
        -50.04706360
 C          4.8143687704        0.1154809643       -0.0004056082
 C          4.5284174103        1.4679890093       -0.0008342198
 C          3.2116868407        1.9015671922       -0.0006048709
 C          2.1823659618        0.9772189272        0.0000371298
 C          2.4704271568       -0.3862153784        0.0003229795
 C          3.7862190610       -0.8142863319        0.0001564572
 O          1.4750206062       -1.3402116956        0.0007075193
 C          0.1950159005       -0.8675228807        0.0003579340
 C         -0.8527256103       -1.7828104006       -0.0000130229
 C         -2.1733532450       -1.3566069579       -0.0003031042
 C         -2.4536602971       -0.0024931620       -0.0001215151
 C         -1.4175367827        0.9317890829        0.0002529694
 C         -0.0940839604        0.5004202143        0.0003892995
 O          0.8848989371        1.4478149928        0.0004557410
 Cl        -1.7376547796        2.6182563296        0.0004004799
 Cl        -4.0828137426        0.5338099067       -0.0005282970
 Cl        -0.4846206675       -3.4599971339       -0.0000545098
 H          5.8377239485       -0.2248369887       -0.0006140128
 H          5.3263384100        2.1935186043       -0.0012844548
 H          2.9616310355        2.9499918287       -0.0007441993
 H          3.9823632329       -1.8741438463        0.0003935995
 H         -2.9724605588       -2.0785679525       -0.0006799399
