! r2scan-3c def2/J RI DEFGRID2 scfconv6 printgap
%output
    printlevel normal
end
* xyz 0 1
C -3.3221902155 -0.3195875308 -0.1879690338
C -2.1809600833 0.5472251747 0.3386748214
H -2.6062003292 1.3044110823 1.006499707
C -1.4573603853 1.249954249 -0.8225784558
C 0.0463227036 1.3513570229 -0.5811846881
C 0.6404197644 -0.0555730129 -0.571872326
H 0.5759744961 -0.4613237947 -1.5897612333
C -0.173266903 -0.9899948225 0.3051161271
O 0.0104400717 -2.1826855453 0.3192133704
C -1.2038612221 -0.3066245986 1.1663838528
C 2.1289450784 -0.1498323241 -0.1618805043
C 3.0175066861 0.6522959893 -1.1091053586
C 2.3700530211 0.2789134636 1.2837990974
H -2.9283909597 -1.1413773624 -0.7824776595
H -3.8999188746 -0.7377714478 0.6333451319
H -3.9910875576 0.2710716914 -0.8104376638
H -1.6176152617 0.6828165583 -1.742834419
H -1.8810665493 2.2441609691 -0.9739848868
H 0.5040859112 1.9377604745 -1.3792079487
H 0.2343742223 1.8660860242 0.3611172067
H -1.7494936821 -1.0551538562 1.7427510208
H -0.6623688076 0.3350577731 1.8649563564
H 2.3988362866 -1.2085628245 -0.2459359236
H 2.8309748059 0.3753813868 -2.1441646565
H 4.0647552022 0.4591266721 -0.8881383902
H 2.8400959744 1.7191897916 -0.996614664
H 2.1168038061 1.3258941251 1.4343253258
H 3.4211732873 0.1507880026 1.5328821296
H 1.7848673059 -0.3294698231 1.9695666649
*
