! pbe def2-sv(p) def2/J RI DEFGRID1 loosescf d4 GCP(DFT/SV(P)) printgap
%output
    printlevel normal
end
* xyz 0 1
C -2.3889475116 -0.9115544628 0.4026710215
C -0.942274573 -0.4445435709 0.6154340725
H -0.6767708645 -0.5576045685 1.6789285383
C -0.7444948752 1.0311312277 0.199544171
H -1.5052479513 1.3064893027 -0.5426092722
C 0.643236108 1.2307180557 -0.4626986295
H 0.9060763623 2.2885770243 -0.345496659
C 1.666158193 0.3586173722 0.2721881317
H 2.6548111359 0.4667527896 -0.1907411654
C 1.2624809597 -1.1264802242 0.0845754564
H 1.5341344711 -1.6779033384 1.0055000289
O -0.1222751517 -1.2965378878 -0.1621900793
O 1.9315595879 -1.6169602453 -1.0271340758
O 1.7804317562 0.6944451137 1.6274086331
O 0.6156930073 0.970247948 -1.835054274
O -0.8005478285 1.8819715356 1.3293253167
O -2.8320018842 -0.6787775684 -0.9036959589
H -3.059846701 -0.3553900461 1.0617096018
H -2.4484102506 -1.9792780421 0.6546574343
H 1.6648052997 -2.5319874139 -1.1775138468
H 1.0083292514 1.2186564018 1.8875916809
H 0.7451820204 0.0223661524 -1.97609997
H -1.7135822832 1.9650627116 1.62308503
H -2.1988399792 -1.0849068081 -1.5080969582
*
