! pbe def2-sv(p) def2/J RI DEFGRID1 loosescf d4 GCP(DFT/SV(P)) printgap
%output
    printlevel normal
end
* xyz 0 1
C 1.6862524757 0.3961870313 0.6284610867
C 0.8932261964 0.3698935724 -0.6725179026
C -0.5663272058 -0.0599824752 -0.4856224932
H -1.0582827005 -0.0168800592 -1.4746126502
C -1.3358430642 0.8470823664 0.4747970167
O -0.5601511408 -1.4013146204 -0.0330612993
H 2.74114404 0.5543188515 0.4175658998
H 1.5732325949 -0.5536485912 1.1436978873
H 1.3461816947 1.1962705653 1.2809146175
H 1.3557210076 -0.3451908491 -1.3548204849
H 0.9093945915 1.3533440987 -1.1458397163
H -2.3927519801 0.5829224101 0.4794862927
H -0.9494275283 0.7385950896 1.4846651117
H -1.2420046864 1.8848643187 0.1671882881
H -1.4627576396 -1.659163537 0.1805940896
*
