! pbe def2-sv(p) def2/J RI DEFGRID1 loosescf d4 GCP(DFT/SV(P)) printgap
%output
    printlevel normal
end
* xyz 0 1
C -1.9725102995 -1.0610084298 -0.8102916349
C -1.6004245078 -0.2182582946 0.4080126649
C -2.0416755521 1.2292023004 0.1988003294
C -0.1432794504 -0.3831686754 0.8846911081
C 1.0902435475 0.0084359672 0.041700269
C 1.2153713936 -0.8086573023 -1.2457891803
C 1.1317365513 1.4992980291 -0.298234268
C 2.3132886921 -0.3081959853 0.9177732527
H -1.5924694742 -0.6224831556 -1.7280262011
H -1.5821354777 -2.0713492937 -0.7181922839
H -3.0560578072 -1.121162317 -0.8971146901
H -2.1912399425 -0.6064199474 1.2497455364
H -1.7011335413 1.8613446427 1.0150162425
H -1.6607229538 1.6309692692 -0.7350218998
H -3.1285780072 1.2787376051 0.1607787985
H -0.0671911853 0.1730556291 1.8241634152
H -0.023510484 -1.4414208649 1.1364198933
H 2.2017627015 -0.6599614104 -1.6818204326
H 0.4795712059 -0.5057336282 -1.9833622758
H 1.0896163433 -1.8698210843 -1.0446909947
H 2.1161781826 1.7625788832 -0.6811934285
H 0.9381598111 2.103399152 0.5847251669
H 0.4025911541 1.753953384 -1.060448779
H 2.2869825192 0.2672104329 1.840735854
H 3.2333124522 -0.0630839533 0.3916077303
H 2.3412572513 -1.365105968 1.1747646884
*
