! r2scan-3c def2/J RI DEFGRID2 scfconv6 printgap
%output
    printlevel normal
end
* xyz 0 1
C -1.2692132517 -0.942448659 -0.1085079174
C -0.4207412679 0.3120512418 -0.3039836488
C -1.1265247431 1.5630356826 0.2425387953
C 0.946887392 0.1255063423 0.3692224446
O 1.6839173444 -0.9489969161 -0.1626677507
H -2.1941592992 -0.8722091179 -0.6761939994
H -1.5127460421 -1.0707104992 0.9438922784
H -0.7207783455 -1.8213359081 -0.4401391486
H -0.2419363072 0.4386045547 -1.3794282247
H -2.0854056726 1.3019318114 0.6818476655
H -1.3057478878 2.290866252 -0.544266839
H -0.5268609925 2.042649373 1.0127141983
H 1.5253947174 1.058731442 0.2901241609
H 0.8126514711 -0.1102419225 1.4276085822
H 1.7987507733 -0.8036710676 -1.1086397131
*
