! r2scan-3c def2/J RI DEFGRID2 scfconv6 printgap
%output
    printlevel normal
end
* xyz 0 1
C -1.5754096495 0.0782700082 -0.5380323398
C -0.6689464329 -0.4571229629 0.5628155392
C 0.6553517315 0.2986438184 0.6192849912
O 1.3882784185 0.0210721772 -0.5558932606
H -1.0620171421 0.0213719575 -1.4938458859
H -2.4902733042 -0.5061407144 -0.5961780185
H -1.8386682233 1.1164416175 -0.3455708564
H -0.4509865783 -1.5095260975 0.37668616
H -1.161138812 -0.3711662303 1.5333691951
H 0.4620138027 1.3781884064 0.7045984777
H 1.2245239046 -0.0202696736 1.5055535663
H 2.2149584264 0.5124418844 -0.5356339723
*
