! pbe def2-sv(p) def2/J RI DEFGRID1 loosescf d4 GCP(DFT/SV(P)) printgap
%output
    printlevel normal
end
* xyz 0 1
C -2.3380665717 -1.0479346839 0.3817308101
C -1.0769645962 -0.2695669337 0.8104104367
H -1.3088050924 0.2020560357 1.7742555019
C -0.6925859823 0.8469572626 -0.1684733297
H -0.6980924039 0.4758496787 -1.2085954927
C 0.73728227 1.2955175456 0.1686309869
H 0.7881223716 1.5493604772 1.2339840095
C 1.7174845958 0.1497766087 -0.1231610769
H 2.0082988826 0.1886417585 -1.1875654867
C 1.0089473872 -1.2065358024 0.0884002679
H 1.744278915 -1.9171941221 0.4961269763
O 0.0103468424 -1.1538141417 1.0600096365
O 0.5349449985 -1.6277650766 -1.1557558884
O 2.8516460654 0.1983224703 0.6976704761
O 1.0619839692 2.4862042325 -0.5128298396
O -1.6028308905 1.910080498 -0.0481370643
O -2.2201347003 -1.7146950843 -0.8519938646
H -3.1809183033 -0.348354278 0.3749279819
H -2.5191086443 -1.8293723253 1.1224548034
H -0.2562804728 -2.1776321009 -1.0135132635
H 3.2269850726 1.086495693 0.652990953
H 1.1101849139 2.3037656851 -1.4602789736
H -1.100197353 2.7327691776 -0.1405295632
H -2.2363364061 -1.0651610404 -1.5640827962
*
