! pbe def2-sv(p) def2/J RI DEFGRID1 loosescf d4 GCP(DFT/SV(P)) printgap
%output
    printlevel normal
end
* xyz 0 1
C -2.9042807911 1.4660821313 0.0007184827
C -1.8043892841 0.4519024358 0.0002217233
C -2.1020211639 -0.9097605815 -0.0001850764
C -1.1001818588 -1.8656500015 -0.0006387486
C 0.2278501124 -1.4810294933 -0.0006206279
C 0.5274557944 -0.1252134488 -0.0001326758
C -0.4736200724 0.83823158 0.0002175522
N 1.9060478318 0.2947500968 8.03114e-05
O 2.758414099 -0.568142167 0.0018036491
O 2.1336096983 1.4863233464 -0.001612103
H -3.5345748893 1.3395359109 -0.8782557127
H -3.5334514749 1.3398154334 0.8805417971
H -2.5036089158 2.4756627253 0.0003025664
H -3.1366086574 -1.2205986542 -0.0003905917
H -1.3553722541 -2.9141139356 -0.001092329
H 1.0295676111 -2.2027058766 -0.0008509371
H -0.1941660105 1.8811882084 0.000586102
*
