! pbe def2-sv(p) def2/J RI DEFGRID1 loosescf d4 GCP(DFT/SV(P)) printgap
%output
    printlevel normal
end
* xyz 0 1
C 1.5307893726 1.1930340341 1.92496e-05
C 0.1485580833 1.2361422305 -0.0001370579
C -0.5528196961 0.0288663312 -7.29183e-05
C 0.1794414894 -1.163911088 -0.0001780036
N 1.495044461 -1.1942746839 3.98307e-05
C 2.1549281695 -0.0478462718 0.0002295343
C -1.96534359 0.0035029708 -9.36602e-05
N -3.1111436389 -0.0229630324 0.0002271922
H 2.1124856886 2.1013166712 -0.0001643106
H -0.3860686128 2.175166049 -0.0003619018
H -0.3232778855 -2.1220049305 -0.0006272508
H 3.2333518465 -0.1321765991 0.0002175804
*
