! pbe def2-sv(p) def2/J RI DEFGRID1 loosescf d4 GCP(DFT/SV(P)) printgap
%output
    printlevel normal
end
* xyz 0 1
C -2.7544094436 -0.5408952079 -0.7437849048
C -1.6545894311 0.0552712866 0.1004750054
O -1.8047017173 0.3138652902 1.267403543
C -0.3454695677 0.284172188 -0.6370361228
C 0.3913620125 -1.0709868295 -0.7065867011
C 1.8893683783 -0.8451894998 -0.87591909
C 2.48240501 -0.1982047062 0.3810729739
C 1.4568388686 0.7011719169 1.0798879523
C 0.5198092178 1.343324615 0.0638738641
H -3.0993585205 0.2108029686 -1.4518446808
H -2.3852543212 -1.3929325014 -1.3082760843
H -3.5881956874 -0.8441105855 -0.1161125929
H -0.5731239012 0.6139325051 -1.6553765715
H 0.2171322188 -1.6360783381 0.2114767014
H 0.0041319679 -1.6600511942 -1.5399687835
H 2.3865940787 -1.7960420714 -1.0758124349
H 2.0513940034 -0.2020431987 -1.7431965408
H 2.8128729125 -0.9722720957 1.075987431
H 3.3613404612 0.385935156 0.1017612988
H 0.8572079654 0.1220764067 1.7825585876
H 1.9717735432 1.4753846882 1.6506252701
H -0.1339789323 2.0555264615 0.5702991475
H 1.1065758832 1.8910507032 -0.6759215041
*
