  24
        -25.32039717
 C         -2.9200440497        0.0000797034        0.0493507913
 C         -1.4443932483        0.0000672559       -0.3393919402
 C         -0.7381826410        1.2474839940        0.1921140326
 C          0.7384366743        1.2475843083       -0.1917889587
 C          1.4444669445       -0.0000697016        0.3394119909
 C          0.7382069455       -1.2476000786       -0.1917893175
 C         -0.7384216986       -1.2474939963        0.1920845473
 C          2.9199392803       -0.0000516160       -0.0499393262
 H         -3.4200484785        0.8826236832       -0.3437035824
 H         -3.4203222421       -0.8820349652       -0.3443226462
 H         -3.0275721261       -0.0002736032        1.1321984342
 H         -1.3715597935        0.0000921790       -1.4332626475
 H         -1.2223219918        2.1429548679       -0.2045204459
 H         -0.8299477671        1.2740605874        1.2808514797
 H          0.8301483184        1.2743820469       -1.2805231719
 H          1.2226687849        2.1429254927        0.2050442832
 H          1.3721196766       -0.0000679304        1.4333108262
 H          0.8299583190       -1.2744362238       -1.2805218341
 H          1.2223157350       -2.1429969569        0.2050549609
 H         -1.2226748510       -2.1428769771       -0.2046156797
 H         -0.8301857908       -1.2741106883        1.2808235071
 H          3.4203113045        0.8822047953        0.3434195852
 H          3.0269009734        0.0001411687       -1.1329119523
 H          3.4201121275       -0.8825859146        0.3430613583
  24
        -25.31561827
 C         -2.3983184980        0.0001415099        0.5364799822
 C         -1.3772987769        0.0000581024       -0.5999276081
 C         -0.4953812094        1.2522472274       -0.5808283762
 C          0.4953478819        1.2521660394        0.5805485588
 C          1.3772078481       -0.0000496037        0.6000424553
 C          0.4952920665       -1.2522501678        0.5804958455
 C         -0.4954925802       -1.2522351510       -0.5808121617
 C          2.3985978468       -0.0000839332       -0.5360359012
 H         -3.0331772733       -0.8811596256        0.4715425727
 H         -1.9148876044       -0.0007202628        1.5086506988
 H         -3.0318526642        0.8824439460        0.4724269141
 H         -1.9410657254        0.0000391813       -1.5416406641
 H          0.0532375375        1.3118260842       -1.5228339665
 H         -1.1265733029        2.1417601055       -0.5154727421
 H          1.1266957143        2.1415414200        0.5150740692
 H         -0.0532988968        1.3120152973        1.5225127816
 H          1.9406569542       -0.0001189692        1.5419696668
 H          1.1266139277       -2.1416226183        0.5149022239
 H         -0.0532382758       -1.3121340127        1.5225321267
 H          0.0530737053       -1.3117960517       -1.5228452083
 H         -1.1267591142       -2.1416902250       -0.5154629810
 H          3.0330343128       -0.8817287261       -0.4710114718
 H          3.0325312165        0.8819364236       -0.4714473270
 H          1.9155507672       -0.0005207445       -1.5084533216
  24
        -25.31191669
 C         -2.7232091872       -0.2533730229        0.2958558100
 C         -1.4547154039        0.0970959699       -0.4785583625
 C         -0.7417871076        1.2899808152        0.1750572456
 C          0.7419354798        1.2900743227       -0.1745735470
 C          1.4548903904        0.0969270563        0.4785472430
 C          0.5040888330       -1.1085944779        0.5718722084
 C         -0.5041358512       -1.1086216156       -0.5716127601
 C          2.7229627856       -0.2536253111       -0.2965279297
 H         -3.3613356194        0.6223296400        0.3956553146
 H         -3.2859651295       -1.0302248570       -0.2176431423
 H         -2.4754553462       -0.6114572766        1.2929078992
 H         -1.7477057698        0.3811223242       -1.4955699454
 H         -1.2070640032        2.2210137552       -0.1545851629
 H         -0.8501496335        1.2368069776        1.2603867282
 H          0.8502724116        1.2373036419       -1.2599236955
 H          1.2071942287        2.2209926107        0.1554125162
 H          1.7484369876        0.3807164202        1.4954580892
 H          1.0844375382       -2.0330932760        0.5550767255
 H         -0.0368288528       -1.0830897849        1.5194089334
 H          0.0367798753       -1.0833714158       -1.5191502709
 H         -1.0846283358       -2.0330264812       -0.5546576542
 H          3.2860360194       -1.0303320202        0.2168028851
 H          3.3610065378        0.6220670617       -0.3969155391
 H          2.4746123130       -0.6119763281       -1.2933775927
