! r2scan-3c def2/J RI DEFGRID2 scfconv6 printgap
%output
    printlevel normal
end
* xyz 0 1
C -2.3896478244 0.2124048468 0.0025620519
C -0.9121532238 0.3218539246 0.0043194396
C -0.0588659357 -0.7053207224 -0.0098894257
C 1.3862230303 -0.4950749796 -0.0067476282
O 1.9382756343 0.5777626806 0.0085054398
H -2.7129674845 -0.8254763257 -0.0120941414
H -2.7974208592 0.7273118941 -0.8671880083
H -2.7976717162 0.7026212409 0.8863501846
H -0.5001399259 1.3236637176 0.0183828316
H -0.4072855187 -1.7282669987 -0.0242440977
H 1.9764728493 -1.4329972516 -0.0199664426
*
