! pbe def2-sv(p) def2/J RI DEFGRID1 loosescf d4 GCP(DFT/SV(P)) printgap
%output
    printlevel normal
end
* xyz 0 1
C -2.9703875144 0.6456744465 -0.7520531272
C -2.2693931862 0.3510744972 0.5755551034
C -0.8522499722 -0.084309627 0.3334976027
C -0.5471897494 -1.4263758354 0.1373306231
C 0.7519939857 -1.8165461089 -0.1277660079
C 1.764439255 -0.8767879966 -0.2035551614
C 1.4694727153 0.4667885848 -0.0112075589
C 0.1620591432 0.8559199146 0.2554551504
O 2.4272964199 1.4340013534 -0.0738101724
H -2.9807691151 -0.2428243672 -1.3793168605
H -2.4476565112 1.4351506898 -1.2869844047
H -3.9966298474 0.9620085456 -0.5796186862
H -2.8131745743 -0.4351403598 1.1031056199
H -2.2798393062 1.2498710527 1.1948480086
H -1.3310276175 -2.1671221216 0.1959870886
H 0.9834106167 -2.8610779065 -0.2767247503
H 2.7820193895 -1.1824723886 -0.4099230052
H -0.0425826905 1.905148548 0.4027776657
H 3.2832903772 1.0311843977 -0.2623358544
*
