! pbe def2-sv(p) def2/J RI DEFGRID1 loosescf d4 GCP(DFT/SV(P)) printgap
%output
    printlevel normal
end
* xyz 0 1
C -1.8233312533 -0.7890884103 -1.0102094799
C -1.2671411632 -0.6388933646 0.4318628907
H -2.0448158523 -0.9547408347 1.1416141809
C -0.8726849484 0.8051859612 0.7731597793
H -1.7320797273 1.4611964024 0.5707937938
C 0.3048891712 1.2865811731 -0.0853842863
H 0.8679453591 2.0168218194 0.5115571795
C 1.2613013339 0.1330804455 -0.4237381618
H 1.0124408549 -0.273625512 -1.4179404983
C 1.1119434936 -1.0070592298 0.5917057463
H 1.4011618139 -0.6301061502 1.5923498076
O -0.1891298897 -1.5400341083 0.6427639461
O 1.9758797023 -2.0280258251 0.1958239307
O 2.575650577 0.6250633475 -0.4276572076
O -0.214301913 1.8886291859 -1.250617836
O -0.4782130476 0.9236285481 2.1201394795
O -2.5933513301 0.2964792829 -1.4365079323
H -2.4766635462 -1.664366985 -1.0397059518
H -0.9847444017 -0.9736554953 -1.6921507546
H 1.6688107063 -2.8456458158 0.6032568933
H 3.1715818709 -0.1346008004 -0.4273734407
H 0.5270917485 2.2291075171 -1.7642798288
H -1.1868405995 0.5968482492 2.6867492821
H -1.9993461182 1.0466497124 -1.5933387068
*
