  11
        -17.62368920
 C          2.0293143283        0.0643136750       -0.0001448703
 C          0.7594901066       -0.7741161631        0.0002011116
 C         -0.4821750247        0.0802950012       -0.0000324718
 O         -0.5200606590        1.2795597523        0.0000787880
 O         -1.5940121691       -0.6732028059       -0.0001014068
 H          2.9059702643       -0.5777955148        0.0000675225
 H          2.0590235288        0.7020786627       -0.8795173375
 H          2.0590710945        0.7027376031        0.8787465348
 H          0.7150210224       -1.4210827437       -0.8786306191
 H          0.7151250120       -1.4204677122        0.8795006096
 H         -2.3832009402       -0.1090271003       -0.0000909185
  11
        -17.62308884
 C          1.8419456349       -0.4225592765       -0.4833903341
 C          0.8298103244       -0.3643640399        0.6633460903
 C         -0.4694434515        0.2017178890        0.1508228319
 O         -0.8007567226        1.3549435073        0.1987646370
 O         -1.2354362944       -0.7424378640       -0.4126186607
 H          2.0080761648        0.5719341115       -0.8908829892
 H          2.7894098396       -0.8136296753       -0.1218548409
 H          1.4772338637       -1.0702154251       -1.2769825034
 H          0.6507793537       -1.3668882721        1.0513772152
 H          1.2026530030        0.2820258220        1.4575552338
 H         -2.0502764183       -0.3523290521       -0.7663353975
  11
        -17.62260934
 C          1.6715998864       -1.0475273151       -0.1732139069
 C          1.0497046621        0.2801927991        0.2358761981
 C         -0.4450604511        0.3497527662        0.0444853367
 O         -1.0871060170        1.3664344634        0.0720424051
 O         -1.0145041596       -0.8457499928       -0.1458952294
 H          1.4854473623       -1.2489810188       -1.2248588264
 H          2.7460042299       -1.0181692347       -0.0101179892
 H          1.2520356820       -1.8625687203        0.4096759538
 H          1.2376475441        0.4761919505        1.2953354309
 H          1.4877654235        1.1092519828       -0.3236014082
 H         -1.9736249119       -0.7448059415       -0.2509567064
