! pbe def2-sv(p) def2/J RI DEFGRID1 loosescf d4 GCP(DFT/SV(P)) printgap
%output
    printlevel normal
end
* xyz 0 1
C 0.7401570553 -0.0004065057 -0.0001318876
C 1.4436806245 -0.9535606415 0.7323909662
C 2.8376584854 -0.9593713669 0.7360997158
C 3.5333990231 0.0001530552 -0.0002679995
C 2.8372157923 0.9593606827 -0.7365927589
C 1.4432424725 0.9530080787 -0.7327772723
Cl 0.5786170034 2.1145089707 -1.6468759946
Cl 3.691380345 2.1342302648 -1.6394137563
Cl 5.2426080421 0.0006968876 -9.25121e-05
Cl 3.6923534559 -2.1337558774 1.6389891465
Cl 0.5795954168 -2.1154967844 1.6464488655
C -0.7401586374 -0.0003854375 8.48214e-05
C -1.4436945906 -0.9535362267 -0.7324400047
C -2.83768253 -0.9592608764 -0.7361614492
C -3.5334087813 0.0003246495 0.0001002651
C -2.8371946424 0.9594800683 0.7365129288
C -1.4432341574 0.9530137202 0.7327569778
Cl -0.5785964376 2.1144824307 1.6468837444
Cl -3.691294832 2.1343164915 1.6394046005
Cl -5.2425846283 0.0006967881 0.0001741788
Cl -3.6924491596 -2.1338278725 -1.6388104166
Cl -0.5796224686 -2.1154512599 -1.6465636357
*
