! r2scan-3c def2/J RI DEFGRID2 scfconv6 printgap
%output
    printlevel normal
end
* xyz 0 1
C -1.5875894475 1.6948214297 0.3659922151
C -1.5875113797 0.238845237 0.824667846
C -2.2502809269 -0.6803147804 -0.2140014424
C -0.1765132019 -0.2226662875 1.1670066112
Br 1.0193620536 -0.1901246786 -0.3791671766
H -1.1338359364 2.33747683 1.1185826855
H -1.0294076008 1.8017372601 -0.5619332084
H -2.6060453436 2.0350115432 0.1958131586
H -2.1469045595 0.1794760159 1.7672388151
H -1.5605136671 -1.4456333967 -0.5621578699
H -2.5709286128 -0.1109220338 -1.0823907589
H -3.1211838797 -1.1803684482 0.2018116759
H -0.1709926295 -1.2520153963 1.5245073633
H 0.2841070839 0.4253533057 1.9122804981
*
