! pbe def2-sv(p) def2/J RI DEFGRID1 loosescf d4 GCP(DFT/SV(P)) printgap
%output
    printlevel normal
end
* xyz 0 1
C -2.7503676238 -0.6722231803 -0.8956835287
C -1.3131923195 -0.5571719685 -0.3910043931
H -0.6353441212 -0.8189134665 -1.2125709357
C -1.0465897942 -1.4854668314 0.7938751714
C 0.4076226976 -1.4361474612 1.2876083719
C 1.0880934205 -0.0912642262 0.9941109555
H 1.8301807743 0.0953588377 1.7816071336
C 0.0274035326 1.0167107968 1.0787200936
C -0.977028831 0.8789623344 -0.0396480818
O -1.4504344708 1.8292712573 -0.6117431779
C 1.8433038364 -0.0021409431 -0.3171686418
C 1.9540951302 -0.973644041 -1.2092603595
C 2.5097547544 1.32311924 -0.557202754
H -2.9270999334 0.0668275949 -1.6726271722
H -2.937728809 -1.6637961642 -1.3004998667
H -3.4520178328 -0.4893371541 -0.0842398437
H -1.7205505785 -1.2004798187 1.6055052191
H -1.3041096698 -2.5079658718 0.511508526
H 0.4114352214 -1.5998790771 2.367394025
H 0.9897055429 -2.2450549024 0.8491974938
H -0.5144057557 0.9184045168 2.023444795
H 0.4657805316 2.0141950262 1.0539303862
H 2.5286852023 -0.8322281127 -2.109433034
H 1.4957704019 -1.9410240995 -1.1062411703
H 2.9691649872 1.7007518634 0.354646879
H 3.2748823605 1.2350567098 -1.3239054006
H 1.7776306363 2.0552105604 -0.8971832664
*
