! pbe def2-sv(p) def2/J RI DEFGRID1 loosescf d4 GCP(DFT/SV(P)) printgap
%output
    printlevel normal
end
* xyz 0 1
C -2.5724682455 -0.6823152437 -0.2495526001
C -1.178349982 -0.2855010247 0.246777181
H -1.195943512 -0.1911319585 1.343646965
C -0.7187506195 1.0444962435 -0.359319355
H -0.7045045159 0.9385328922 -1.4598675491
C 0.7033492208 1.3411757771 0.1284558006
H 0.6788357103 1.5232177152 1.2098266441
C 1.6510445249 0.1680649287 -0.155616516
H 1.8188066748 0.0826746705 -1.2430994042
C 1.0356074013 -1.1586227004 0.3168891942
H 1.0538846185 -1.1677009044 1.4265560426
O -0.2916562773 -1.3206574162 -0.1323530851
O 1.780629111 -2.1879224121 -0.2162236117
O 2.8645449429 0.3465409182 0.5203767962
O 1.1962865662 2.5411731756 -0.4287459132
O -1.6015488008 2.0665155371 0.0164221869
O -3.0207741303 -1.8633972628 0.351510005
H -2.535388433 -0.788306223 -1.342566879
H -3.2794185484 0.1045478519 0.0150184572
H 1.3544150336 -3.0266005231 -0.0024362474
H 3.1577703614 1.2557015233 0.372031506
H 1.2612766016 2.4402385708 -1.3873524218
H -1.1214221192 2.9049938167 -0.0338486392
H -2.3460938473 -2.5368950147 0.2026730491
*
