! pbe def2-sv(p) def2/J RI DEFGRID1 loosescf d4 GCP(DFT/SV(P)) printgap
%output
    printlevel normal
end
* xyz 0 1
C -2.3137380506 -0.9758454653 -0.3518192689
C -0.9321764909 -0.5238478234 0.132087613
H -0.8531571722 -0.751816448 1.2070046628
C -0.7328212519 1.0010739934 -0.0597232969
H -1.3642953125 1.3721658547 -0.8767491168
C 0.7385022354 1.2600924504 -0.4566251175
H 0.9760003346 2.3151043842 -0.2776002172
C 1.6447370181 0.3541936143 0.4054009072
H 2.6980676489 0.5299658586 0.1525831326
C 1.3300632592 -1.1291972248 0.0684063159
H 1.3294111795 -1.704105162 1.0072504343
O 0.069003447 -1.2388244904 -0.5679220181
O 2.2826754108 -1.6985437405 -0.7449648478
O 1.4109748386 0.5684960536 1.7830429337
O 0.9583341565 1.0291315756 -1.823150068
O -1.1217129685 1.7204616648 1.0791812421
O -3.3324951743 -0.4468729472 0.4496880141
H -2.3879010857 -2.0630162009 -0.2811102057
H -2.4419928631 -0.6857469234 -1.4056231702
H 2.2680551888 -1.263178533 -1.6082076483
H 1.8917315813 1.3538034502 2.067082685
H 0.5507126987 0.1774225238 -2.0421606284
H -0.561661249 1.4323171243 1.8153576429
H -3.1767004442 0.4984192801 0.5757973882
*
