! pbe def2-sv(p) def2/J RI DEFGRID1 loosescf d4 GCP(DFT/SV(P)) printgap
%output
    printlevel normal
end
* xyz 0 1
C -3.0482504155 -0.0838341337 -0.3124964554
C -2.0019011005 0.2470439422 0.7499366214
H -2.5249705207 0.4079066279 1.7003812611
C -1.213233741 1.515394253 0.4161975327
C -0.30979479 1.3294793543 -0.7985838891
C 0.6648010804 0.1527291634 -0.6362461152
H 1.1516846465 -0.0370128636 -1.6000370463
C -0.1512870436 -1.0792044978 -0.2915100826
O -0.1229248693 -2.0843108692 -0.9578061678
C -1.0316378652 -0.9303737787 0.9259182197
C 1.7793380715 0.3926589869 0.4040180347
C 2.5867901673 -0.8897938394 0.6040906481
C 2.7145610268 1.5175814917 -0.0357181849
H -3.6680536648 -0.9142693042 0.0178580348
H -3.6934751428 0.7731796237 -0.4936190565
H -2.5780885356 -0.3719266393 -1.249069291
H -1.9098960663 2.3339687668 0.2219397062
H -0.6109427378 1.8003090975 1.28145099
H -0.9260160465 1.1442152241 -1.6805308853
H 0.2478611694 2.2479735999 -0.9857035639
H -1.5842109067 -1.8585422402 1.082508568
H -0.3985974341 -0.7511513082 1.7969498033
H 1.3289945387 0.6742754541 1.3606148677
H 3.0321036744 -1.2050954441 -0.3368792463
H 1.9584068203 -1.7003577517 0.9661565006
H 3.3853024036 -0.7267828356 1.324967869
H 3.1387199397 1.2995339861 -1.0134181714
H 3.5313923751 1.6184725461 0.6755851431
H 2.1975870875 2.4720338178 -0.0869485397
*
