  22
        -59.10354945
 C         -1.5027946405        1.1831862526       -0.5685471690
 C         -0.8037213824        0.1664872600        0.0740363495
 C         -1.5070801332       -0.8432365649        0.7220712761
 C         -2.8919109271       -0.8407355738        0.7166072365
 C         -3.6004157313        0.1670448250        0.0624600772
 C         -2.8875420129        1.1799250238       -0.5782818365
 Cl        -3.7343153409        2.4367033343       -1.3879369585
 Cl        -5.3153554670        0.1628770356        0.0498110666
 Cl        -3.7450781101       -2.0918763960        1.5269310905
 C          0.6705539669        0.1862072925        0.0784808999
 C          1.3370667059        1.3387320457        0.4810037451
 C          2.7201277264        1.3932488503        0.5048286133
 C          3.4736949966        0.2865282694        0.1147615704
 C          2.8173565661       -0.8698761875       -0.3058692968
 C          1.4237946319       -0.9196019001       -0.3227348679
 Cl         0.6539009460       -2.3429130378       -0.9012004167
 Cl         3.7329950829       -2.2292773514       -0.8067769017
 Cl         5.1852229968        0.3423383923        0.1429668671
 Cl         3.5107735008        2.8273531451        1.0172058090
 H         -0.9709146805        1.9687365427       -1.0806856664
 H         -0.9839130964       -1.6251512280        1.2475818995
 H          0.7673558269        2.1978778134        0.7965337905
