! pbe def2-sv(p) def2/J RI DEFGRID1 loosescf d4 GCP(DFT/SV(P)) printgap
%output
    printlevel normal
end
* xyz 0 1
C -1.6751710624 -1.3460064197 -0.5702147245
C -1.1357000297 -0.5031845181 0.6025336897
H -1.8887630434 -0.5008659062 1.4020478635
C -0.8865414484 0.9749524337 0.1993553771
H -1.275412005 1.1480881684 -0.8096335274
C 0.6174899219 1.2767529477 0.2026105463
H 0.9636670752 1.3855702228 1.2477639527
C 1.3744270261 0.0962899733 -0.417726467
H 0.9727098278 -0.1039169254 -1.420927544
C 1.1717244103 -1.1496921949 0.4591580308
H 1.9794611481 -1.1919372565 1.2110228099
O -0.0039915342 -1.105890877 1.216327836
O 1.2312083983 -2.2705643557 -0.3774552674
O 2.7333679697 0.4553979406 -0.5009731002
O 0.8557260802 2.4553581983 -0.5099584436
O -1.6095936727 1.8490643943 1.0240579742
O -2.7656840427 -0.7399929259 -1.2059787633
H -1.9414711988 -2.3428329363 -0.1869328117
H -0.9101141771 -1.4674424995 -1.339014655
H 1.0197037063 -3.0584597098 0.1372905964
H 3.2151099191 -0.2638468874 -0.9233771386
H 1.8050966497 2.4977729763 -0.6846740501
H -1.1480942742 1.9498141255 1.8650965669
H -3.4319778506 -0.5082970431 -0.5486337568
*
