! r2scan-3c def2/J RI DEFGRID2 scfconv6 printgap
%output
    printlevel normal
end
* xyz 0 1
C -2.996732805 1.2199609825 -0.0092140007
C -1.7519291311 0.3832153873 0.0067892166
C -1.8313422718 -1.0002882735 0.0054629112
C -0.6856803193 -1.7769225228 0.0015626745
C 0.5617608105 -1.1784952396 -0.0013172754
C 0.6539167576 0.2222224057 -0.0001958225
C -0.4982256076 0.9870642058 0.0034804661
O 1.9439084423 0.7125232608 -0.0014578124
C 2.1223991367 2.1052166934 0.0030462604
O 1.687677737 -1.9429887226 -0.0034307282
H -3.7467130866 0.8044065114 0.6604383447
H -2.7852065401 2.2428144844 0.2925044869
H -3.4214737079 1.2417144318 -1.0132455489
H -2.7984564056 -1.4800825851 0.0083067154
H -0.739526021 -2.8536269044 0.0020609992
H -0.4382565541 2.0646040513 0.0043920075
H 1.6905897046 2.5613995373 0.8996203011
H 1.6857048582 2.5680480233 -0.8876941037
H 3.1997047998 2.26530057 0.0007147145
H 2.4478738597 -1.3458771221 -0.0040710367
*
