! pbe def2-sv(p) def2/J RI DEFGRID1 loosescf d4 GCP(DFT/SV(P)) printgap
%output
    printlevel normal
end
* xyz 0 1
C -2.0712455579 -1.3770217073 -0.1253151814
C -1.0080746071 -0.5154201984 0.5753955535
H -1.4438541281 -0.1394501144 1.5099891539
C -0.6248415979 0.6901088979 -0.2929525005
H -0.4883242936 0.3779473647 -1.3409153419
C 0.7125712669 1.2392281545 0.2090708025
H 0.6425548947 1.4084123123 1.2982745138
C 1.8074062279 0.1963932049 -0.0657394945
H 2.1504945671 0.3002744884 -1.1002598823
C 1.2288353682 -1.2296151868 0.0931107575
H 1.9857438265 -1.8635945062 0.5846427589
O 0.1332896488 -1.2734683566 0.9659208425
O 0.9239640601 -1.710197318 -1.1787635748
O 2.9362067276 0.4115107074 0.7395079043
O 0.9618740348 2.4595904143 -0.4466121407
O -1.6504595437 1.6476807941 -0.2096528886
O -3.3151986634 -0.7350218132 -0.1420150548
H -2.2026510247 -2.3111742008 0.4279089895
H -1.7386800085 -1.6116131933 -1.1486648387
H 0.5839574009 -2.6107849162 -1.1057413365
H 2.7053188512 0.2379155939 1.6605311627
H 1.8832651318 2.7004199923 -0.29724789
H -1.2754996988 2.4874583391 -0.5066228659
H -3.1705473518 0.1965777959 -0.3603971415
*
