! pbe def2-sv(p) def2/J RI DEFGRID1 loosescf d4 GCP(DFT/SV(P)) printgap
%output
    printlevel normal
end
* xyz 0 1
C -1.9829019921 -0.6150246737 -0.7354644359
C -1.2166068725 -0.102444581 0.5103274874
H -1.9216161199 -0.0907570808 1.3533991182
C -0.656723991 1.3155758911 0.3096560014
H -1.4096946609 1.9103031041 -0.237762336
C 0.6591785655 1.3149152093 -0.4994883663
H 1.1131131072 2.309306991 -0.3820969221
C 1.6504956902 0.2854620634 0.0777785656
H 2.4915320062 0.1807344044 -0.6170342646
C 0.9659462138 -1.0908502149 0.2035499718
H 1.597453767 -1.7573036592 0.8038895007
O -0.2240546653 -1.0100265128 0.9537058746
O 0.7836259603 -1.7001876919 -1.0343328468
O 2.1852211038 0.7168024631 1.2920359292
O 0.4482010574 1.0131083941 -1.8617970675
O -0.3539041672 1.9333823928 1.5418780532
O -2.2196276371 -1.987980334 -0.6629633155
H -1.4363209611 -0.3606739763 -1.6537571935
H -2.9617490735 -0.1289034374 -0.7709386935
H 0.6124446445 -1.0204656701 -1.703013389
H 1.4538585802 0.9931812788 1.8649183756
H 0.0209237717 1.7591105313 -2.2965373298
H -1.1107121222 1.8573798649 2.1346343232
H -1.363489695 -2.4234061699 -0.5307538307
*
