! r2scan-3c def2/J RI DEFGRID2 scfconv6 printgap
%output
    printlevel normal
end
* xyz 0 1
C -2.9982986745 -0.2541868404 3.19095e-05
C -1.6375322821 0.4337269604 -4.09665e-05
C -0.5064495653 -0.5930485525 -0.0006450051
C 0.9245035926 -0.0252190763 -1.486e-07
C 1.1794338668 0.82155567 -1.2490073168
C 1.17901509 0.8198270307 1.2502629625
C 1.8988162604 -1.2088459612 -0.000638794
H -3.109767863 -0.8820846424 -0.8816020818
H -3.1096052371 -0.8821216233 0.8816556355
H -3.7997511322 0.4813301766 0.0001167111
H -1.5636201363 1.0704270428 -0.8827784365
H -1.5632403131 1.0699020296 0.8830428716
H -0.6215709446 -1.2306137641 -0.881385636
H -0.6218575994 -1.2319496833 0.8790858908
H 2.2246044342 1.1208399283 -1.2919974576
H 0.9489133129 0.2557075327 -2.1490926961
H 0.5724063162 1.7229955967 -1.2418402442
H 0.5724857235 1.721608356 1.2438487064
H 2.2243176741 1.1184851444 1.2943043978
H 0.9476121347 0.2529571672 2.1494712576
H 1.7499182172 -1.8280754942 -0.8826530233
H 2.92821229 -0.8570036377 -0.0007919118
H 1.7503668479 -1.8286296174 0.8810612189
*
