  18
        -22.21484020
 C         -2.7448298330        0.0007095725       -0.7349144521
 C         -1.9714993064       -0.0009057418        0.5852687120
 C         -0.4916407898       -0.0004691947        0.3261489640
 C          0.2017399250       -1.1950454129        0.1803095444
 C          1.5564755379       -1.1964514058       -0.1001378637
 C          2.2374134687        0.0004971482       -0.2411252706
 C          1.5557484682        1.1969718899       -0.0995521875
 C          0.2010354794        1.1946098345        0.1809257110
 H         -2.4926003947        0.8826379978       -1.3195742679
 H         -3.8166534146        0.0010587217       -0.5495937514
 H         -2.4934197605       -0.8803598600       -1.3212588096
 H         -2.2466419232       -0.8863272357        1.1621575612
 H         -2.2467452713        0.8830815580        1.1643214772
 H         -0.3252224468       -2.1326078038        0.2909150402
 H          2.0827857771       -2.1339810515       -0.2081377609
 H          3.2954005802        0.0008606509       -0.4589655537
 H          2.0815316920        2.1348359835       -0.2069791439
 H         -0.3264835263        2.1317938329        0.2920958167
  18
        -22.21272469
 C         -2.8509779236        0.7471049555        0.1219092830
 C         -1.9776970861       -0.4831204020       -0.0964524702
 C         -0.4921545283       -0.2334933035       -0.0448757605
 C          0.3601024344       -1.3102689795        0.1818384944
 C          1.7311246056       -1.1405456088        0.2195333728
 C          2.2792184498        0.1173896088        0.0326772043
 C          1.4433781997        1.1954667679       -0.1938485845
 C          0.0698602734        1.0215258036       -0.2341167518
 H         -3.8957894587        0.4502895410        0.1856235279
 H         -2.7530420618        1.4512882240       -0.7008258886
 H         -2.5796218639        1.2495886755        1.0478894178
 H         -2.2179571469       -0.9223644461       -1.0707899262
 H         -2.2246913837       -1.2334727082        0.6596698350
 H         -0.0611436761       -2.2951665569        0.3308294645
 H          2.3740028936       -1.9905552085        0.3977540406
 H          3.3500902370        0.2548882833        0.0645303160
 H          1.8609604934        2.1812617355       -0.3410801166
 H         -0.5602636310        1.8783909364       -0.4146868522
