! pbe def2-sv(p) def2/J RI DEFGRID1 loosescf d4 GCP(DFT/SV(P)) printgap
%output
    printlevel normal
end
* xyz 0 1
C -2.201091554 -1.2432815073 0.1520430316
C -1.1311322165 -0.3561635481 0.8215296566
H -1.5348868758 -0.0311269678 1.7892631568
C -0.8180984542 0.9037107992 -0.0104112009
H -0.9431984325 0.6964653089 -1.082651486
C 0.6401341221 1.294331753 0.242164646
H 0.7948282175 1.3995676227 1.3274199727
C 1.5435349752 0.1776239451 -0.2893298906
H 1.4893140845 0.1901037492 -1.3906169284
C 1.052931199 -1.2041738741 0.2134532241
H 1.8813462837 -1.6756497908 0.7534697474
O 0.0295640831 -1.0849409296 1.1743270415
O 0.7211404007 -2.0599865051 -0.8238879838
O 2.8684961105 0.3563428752 0.1304385375
O 0.9791040605 2.4882393591 -0.4174963269
O -1.6258909471 1.9996080364 0.3664912981
O -1.9450779962 -1.3720269761 -1.2364392922
H -3.1901873127 -0.7895986112 0.3026870137
H -2.1785021239 -2.2199911403 0.6458999809
H -0.124794634 -1.7755468823 -1.2148168884
H 3.1212745795 1.2614052301 -0.0926902906
H 0.2795055324 3.1251611275 -0.2256969738
H -2.5385137619 1.8185676448 0.1210312443
H -2.4754145488 -2.0940499739 -1.5893496192
*
