! pbe def2-sv(p) def2/J RI DEFGRID1 loosescf d4 GCP(DFT/SV(P)) printgap
%output
    printlevel normal
end
* xyz 0 1
C -3.6818444668 0.2702846812 -0.1210506713
C -2.1990468284 0.2892611625 0.2381181453
H -2.0987686359 0.5575673516 1.2959435163
C -1.4357475732 1.3140908795 -0.5982495498
C 0.0425627576 1.3184302704 -0.2261396454
C 0.6747601463 -0.0578941376 -0.4770544129
H 0.5142674003 -0.3089770204 -1.5335728044
C -0.0965128238 -1.0894109866 0.3262396187
O 0.4106469781 -1.8415633707 1.1198297157
C -1.5799885776 -1.0988126746 0.0337915975
C 2.188417155 -0.1290942374 -0.2027486619
C 2.9830933455 0.5582944274 -1.3110303532
C 2.5724834887 0.442029549 1.1602231995
H -3.8168521745 0.0132699072 -1.1697750967
H -4.2132256173 -0.4613383257 0.4828571322
H -4.127483818 1.2470587532 0.0527147183
H -1.5508709789 1.0773349924 -1.6590810907
H -1.8568459012 2.307982338 -0.4315137976
H 0.5696644328 2.0718538181 -0.8134387216
H 0.142678537 1.5785859242 0.8286086615
H -1.7233932354 -1.4039572607 -1.0060135401
H -2.0647963192 -1.8337724341 0.6789137452
H 2.4509428957 -1.1932517499 -0.201049026
H 2.7729342664 1.625320916 -1.3363675709
H 2.741547848 0.1352389165 -2.284079716
H 4.0491862142 0.4297841519 -1.1397785211
H 3.6203911197 0.2331734219 1.3632789699
H 1.977636181 -0.0181017821 1.9442336073
H 2.4320425699 1.520135434 1.188822141
*
