  17
        -27.18713824
 C         -2.7575716995       -0.7845677201        0.0004864528
 O         -1.7948174390        0.2380886527       -0.0004576896
 C         -0.4637115754       -0.1233360376       -0.0002289271
 C          0.0225412495       -1.4178853591       -0.0001998033
 C          1.3923952110       -1.6427347003        0.0000060437
 C          2.2749542572       -0.5813183904        0.0001175646
 C          1.7970261551        0.7191221103        0.0001153535
 C          0.4340227446        0.9581557562       -0.0000163019
 O         -0.0327780741        2.2346203400        0.0000955357
 H         -2.6750804177       -1.4109437030        0.8942897702
 H         -2.6761920828       -1.4116230143       -0.8930768960
 H         -3.7233330599       -0.2811672842        0.0008952239
 H         -0.6518831272       -2.2596474747       -0.0002510542
 H          1.7596158870       -2.6576011884        0.0000650108
 H          3.3392051014       -0.7591065885        0.0002082131
 H          2.4663964383        1.5641876282        0.0002883143
 H         -0.9989040315        2.1960683503       -0.0000110281
  17
        -27.18122276
 C         -2.7589598708       -0.7936992329        0.0001827410
 O         -1.8007379515        0.2326385438       -0.0001364616
 C         -0.4833107149       -0.1126806434       -0.0000838960
 C          0.0070294701       -1.4089647869       -0.0001069309
 C          1.3741254156       -1.6498847025       -0.0000258210
 C          2.2661948094       -0.5989644396        0.0000793754
 C          1.7895554883        0.7036455489        0.0000797036
 C          0.4305115350        0.9593742627       -0.0000070619
 O         -0.0720468791        2.2249877126       -0.0000103975
 H         -2.6781783739       -1.4221968853        0.8937776340
 H         -2.6786109479       -1.4223661563       -0.8933332778
 H         -3.7256236781       -0.2924111781        0.0003648408
 H         -0.6714793763       -2.2470650923       -0.0001948101
 H          1.7312210341       -2.6683793301       -0.0000432217
 H          3.3297751105       -0.7805839896        0.0001593569
 H          2.4817610643        1.5356363502        0.0001583610
 H          0.6562223957        2.8578934270        0.0000348540
  17
        -27.18084286
 C         -2.6660080302        0.5608716338       -0.0006950352
 O         -1.8153991297       -0.5633692412        0.0002130948
 C         -0.4618117274       -0.4125307791        0.0002679663
 C          0.2496058244       -1.6118281164        0.0003229821
 C          1.6291514080       -1.6429119326        0.0000450255
 C          2.3390964892       -0.4563815557       -0.0004152328
 C          1.6506744253        0.7418141807       -0.0003104929
 C          0.2621420625        0.7889227476        0.0001605530
 O         -0.3760065259        2.0057976947        0.0004202755
 H         -2.5208365770        1.1766681914       -0.8908202841
 H         -2.5226514406        1.1768760518        0.8896400159
 H         -3.6768333576        0.1536756221       -0.0018205063
 H         -0.3272472541       -2.5230564725        0.0006811606
 H          2.1453057443       -2.5902735544        0.0003000877
 H          3.4179254741       -0.4565607681       -0.0006593261
 H          2.1962291105        1.6775135120       -0.0005230344
 H          0.2899327567        2.7036300284        0.0005866756
