! pbe def2-sv(p) def2/J RI DEFGRID1 loosescf d4 GCP(DFT/SV(P)) printgap
%output
    printlevel normal
end
* xyz 0 1
C -2.4263985501 -0.8731106435 0.3145893737
C -0.981199852 -0.4469284663 0.597903624
H -0.7506907908 -0.6442412895 1.6571162708
C -0.7518353249 1.0556609724 0.3102191597
H -1.5758080755 1.4411378866 -0.2997490217
C 0.5660511453 1.2449572711 -0.481358919
H 0.8500776276 2.3019182492 -0.4109926048
C 1.663886857 0.3686755648 0.1566726691
H 2.5828098381 0.4385858557 -0.4388401316
C 1.2240592394 -1.1096782774 0.1233742475
H 1.3914062916 -1.5346639217 1.1347399523
O -0.1384428969 -1.2563149971 -0.211492278
O 1.9675541788 -1.7662670391 -0.8395796016
O 1.8937073096 0.7279310787 1.5040511477
O 0.4298860761 0.9736747968 -1.8451800576
O -0.7496979649 1.8068495057 1.4931128299
O -2.8077241713 -0.613060703 -1.0066031905
H -3.0980283171 -0.2962688134 0.9526317323
H -2.530735209 -1.9419249454 0.5493323562
H 1.6214158692 -2.6608525134 -0.9454139824
H 2.3833771599 1.5580895762 1.5236292152
H 0.250459999 0.0296250796 -1.9488189685
H 0.009987896 1.5215973387 2.0232538036
H -2.1771988768 -1.04902887 -1.5918308509
*
