! pbe def2-sv(p) def2/J RI DEFGRID1 loosescf d4 GCP(DFT/SV(P)) printgap
%output
    printlevel normal
end
* xyz 0 1
C 2.4103513364 7.28969e-05 -0.0075275921
N 0.9973864844 -2.29003e-05 0.2981561795
C 0.3300299486 -1.1853499542 -0.2115780257
C -1.1363070296 -1.1562026846 0.2184665738
O -1.7877759119 -6.33975e-05 -0.2525681126
C -1.1364526262 1.1562091031 0.2183184487
C 0.3299789581 1.1853443757 -0.2114494447
H 2.6131598952 0.0001174688 -1.0903885867
H 2.8675708855 -0.8852470257 0.4320504753
H 2.8675975199 0.8851895042 0.4323208024
H 0.3837194082 -1.2368804425 -1.3145599897
H 0.815813183 -2.0704862945 0.2047442771
H -1.6793962217 -2.0060328171 -0.1986092591
H -1.1872373663 -1.1905385979 1.3172462795
H -1.6795126916 2.0059073574 -0.1990925086
H -1.1875740739 1.190822277 1.317085096
H 0.3839354575 1.2371676283 -1.3144183453
H 0.8155840901 2.070426846 0.2051943885
*
