! pbe def2-sv(p) def2/J RI DEFGRID1 loosescf d4 GCP(DFT/SV(P)) printgap
%output
    printlevel normal
end
* xyz 0 1
C -1.9544221564 0.5342910391 0.8986890131
O -1.2049591858 -0.3170821852 0.056944566
S 0.3594022586 0.021950225 -0.1747750669
O 0.8013075645 0.8956797489 0.8688417959
O 0.5662470836 0.4215249105 -1.5281137887
C 1.0288405081 -1.6271480706 0.063813776
H -1.2731242825 1.0992255398 1.5377100918
H -2.6123096652 -0.0902429631 1.5040784022
H -2.5486523475 1.2239737988 0.2957654939
H 0.4810703401 -2.2888255318 -0.5916222549
H 2.0780457837 -1.6038177492 -0.1978872049
H 0.8918318902 -1.8910402706 1.1026599848
*
