! pbe def2-sv(p) def2/J RI DEFGRID1 loosescf d4 GCP(DFT/SV(P)) printgap
%output
    printlevel normal
end
* xyz 0 1
C -2.417412484 0.0604503496 1.5239251162
O -1.1676724241 0.0513127411 0.8496959028
C -1.2205555855 -0.0707298139 -0.4815192171
O -2.2610470334 -0.1684216923 -1.0816153686
C 0.135225763 -0.0768692399 -1.1602284967
C 0.9792000794 -1.2960863472 -0.7590436388
C 1.585835117 -1.1655262433 0.6338541608
C 2.4103372315 0.1127299898 0.7381255733
C 1.5269610039 1.3234557298 0.458228362
C 0.9144226342 1.227222449 -0.9350824582
H -2.9514471705 -0.874982303 1.3454425821
H -3.0344804406 0.8876767686 1.1676126161
H -2.1934011021 0.1774606603 2.5813051965
H -0.0967598984 -0.1579756673 -2.2285922668
H 0.3657909219 -2.1978880765 -0.8202068158
H 1.7872740719 -1.3941743057 -1.4883621937
H 0.7930250877 -1.1429480203 1.3817102273
H 2.2151484695 -2.0357156147 0.8334978625
H 2.8476668684 0.1935745171 1.7350876917
H 3.2284834117 0.0807781018 0.014080412
H 0.7361673961 1.3711655765 1.2068332711
H 2.115065576 2.2413098336 0.5277976377
H 0.2554958953 2.0794765433 -1.1159307709
H 1.7167063252 1.2649985601 -1.6763815829
*
