! pbe def2-sv(p) def2/J RI DEFGRID1 loosescf d4 GCP(DFT/SV(P)) printgap
%output
    printlevel normal
end
* xyz 0 1
C -2.079394857 -1.2351912406 -0.2049833474
C -1.2461368006 -0.3787608653 0.7721543395
H -1.8400832721 -0.2549200263 1.6858539829
C -0.9378574955 1.0138145825 0.1791255929
H -1.2406692875 1.0362716102 -0.8744338425
C 0.5679391719 1.2941878681 0.2570675988
H 0.8766822091 1.3607758247 1.315672799
C 1.3057455124 0.1302829817 -0.4039869284
H 0.9167056888 0.0200894527 -1.4300831568
C 1.0152993296 -1.1544203411 0.3996891586
H 1.8688572978 -1.3400222016 1.0684949375
O -0.0747577406 -1.0375612587 1.2487976079
O 0.8433019571 -2.2617246961 -0.4628062524
O 2.6943796708 0.3267484556 -0.4331628441
O 0.9049984466 2.4855063748 -0.4114591432
O -1.6643148654 2.0517691429 0.7912308502
O -1.5341313611 -1.3136984846 -1.4898398398
H -3.0599819005 -0.7648879285 -0.3128928308
H -2.2032786797 -2.2326683342 0.2354426161
H 1.6832296679 -2.4411441406 -0.8985000547
H 2.8442086281 1.2442392207 -0.6971851549
H 0.1684918439 3.1007222766 -0.3001742727
H -1.4904031408 2.0441596551 1.7408461221
H -0.7094281745 -1.8240161268 -1.4183542681
*
