! r2scan-3c def2/J RI DEFGRID2 scfconv6 printgap
%output
    printlevel normal
end
* xyz 0 1
C 0.0338974235 -1.2113383878 4.16102e-05
C 1.4090849832 -1.2117799209 3.51946e-05
C 2.1096719525 -0.0019630052 8.1802e-06
C 1.410545533 1.206267088 9.1699e-06
C 0.0328920824 1.208618535 1.65201e-05
C -0.6543361896 -0.0003670428 2.07993e-05
N -2.0886313294 0.0015085588 -8.3438e-06
O -2.6523941453 1.0771816638 3.8856e-06
O -2.6557866956 -1.0718252102 -4.93952e-05
O 3.4548602087 -0.0519544283 -4.68574e-05
H -0.5262397964 -2.1335302065 5.89533e-05
H 1.9700784551 -2.1319092322 2.91895e-05
H 1.9542377178 2.1408458087 -2.4916e-06
H -0.5254938617 2.1320200496 3.56975e-05
H 3.8324694049 0.8371798892 -0.0001059219
*
