! pbe def2-sv(p) def2/J RI DEFGRID1 loosescf d4 GCP(DFT/SV(P)) printgap
%output
    printlevel normal
end
* xyz 0 1
C -2.2036668796 -1.0227786995 -0.4017713483
C -1.1716427412 -0.2071469171 0.3883300904
H -1.6619463628 0.2135124777 1.2738988649
C -0.59245628 0.9431946796 -0.4387070341
H -0.4299371171 0.6160072548 -1.4781855982
C 0.7648774631 1.3360519908 0.1596030369
H 0.6258699891 1.5429945029 1.235135254
C 1.7512246099 0.1693314913 -0.0015481494
H 2.1959749023 0.2246697513 -1.0017707767
C 0.9992335769 -1.1835267902 0.1398722935
H 1.6395849071 -1.8784524605 0.7084435225
O -0.1484397825 -1.061846338 0.9109506405
O 0.6799059015 -1.7246920124 -1.1175136611
O 2.8300962589 0.2694248259 0.8948571406
O 1.2123112575 2.4986238822 -0.4973365644
O -1.4937487067 2.0136509795 -0.4009729293
O -2.7819312944 -2.0194895403 0.3971545467
H -1.7153980349 -1.4634029339 -1.2810269136
H -3.0082394924 -0.3591399175 -0.7223672711
H 1.473430726 -2.0785395583 -1.5312408489
H 2.4978600744 0.1851844008 1.7971612571
H 2.1208738765 2.6713020062 -0.2250214572
H -1.022374807 2.7915100258 -0.7279268815
H -2.0576765256 -2.4980483566 0.8200853706
*
