! pbe def2-sv(p) def2/J RI DEFGRID1 loosescf d4 GCP(DFT/SV(P)) printgap
%output
    printlevel normal
end
* xyz 0 1
C -1.4967427343 0.5235239981 -0.0322656831
C -0.7129083979 -0.7843516068 0.0343768165
C 0.8352022893 -0.6094707678 0.0394538689
N 1.3601021705 0.7387831115 -0.0343637776
H -2.5633307403 0.3102816514 -0.0294710323
H -1.2797041665 1.1580109086 0.8251440476
H -1.2678690555 1.0749060371 -0.9424424714
H -0.9992463161 -1.4014712804 -0.819110852
H -1.0132995148 -1.3206417319 0.9362510683
H 1.2439712293 -1.0525270538 0.9514281157
H 1.2609274214 -1.1555527999 -0.8065089173
H 1.0410880171 1.2932342799 0.751879857
H 1.055349801 1.1981754982 -0.8849435218
*
