! r2scan-3c def2/J RI DEFGRID2 scfconv6 printgap
%output
    printlevel normal
end
* xyz 0 1
C -1.0765530412 -1.8706175168 5.0328e-06
C 0.2500681684 -1.4842425481 -1.3842e-06
C 0.548050306 -0.1266614008 -9.5692e-06
C -0.4452489226 0.8391426777 -3.102e-07
C -1.7776638409 0.4389884689 5.8165e-06
C -2.0842845509 -0.9208472027 9.3099e-06
O -2.7295442872 1.397048335 1.06108e-05
N 1.9295829652 0.2929982589 -4.27157e-05
O 2.1580288286 1.4825863516 -2.06584e-05
O 2.778542672 -0.5723478662 3.88476e-05
H -1.3320536095 -2.9186542429 1.03297e-05
H 1.0521071698 -2.2046832869 -1.14459e-05
H -0.1929094684 1.8873876731 -7.0543e-06
H -3.1198089774 -1.2333267363 2.25374e-05
H -3.6106056694 1.0027356722 1.60703e-05
*
