! pbe def2-sv(p) def2/J RI DEFGRID1 loosescf d4 GCP(DFT/SV(P)) printgap
%output
    printlevel normal
end
* xyz 0 1
C 4.5360897638 -0.2209771497 0.0403912534
C 3.9831918493 1.0483800962 0.086512202
C 2.6130850218 1.2150040769 0.0816089259
C 1.7644525987 0.1073175563 0.0305775251
C 2.3219454691 -1.1666637805 -0.0152840322
C 3.6982507544 -1.3194644766 -0.0102941494
N 0.3591822046 0.3427382289 0.026403552
C -0.6101939148 -0.6813573366 -0.0304400807
O -0.331031516 -1.8644166107 -0.0701834544
C -1.9672704456 -0.1907422365 -0.0321110828
C -2.2996710283 1.1402460311 0.0184191034
C -1.182442194 2.0266113382 0.0801266557
N 0.0387350133 1.6264507513 0.0820900654
N -3.5733793974 1.5952765844 -0.0375142041
Cl -3.2027767113 -1.400187396 -0.0971795697
H 5.6080260253 -0.3497980875 0.0438280958
H 4.6226341458 1.9177432834 0.1265057767
H 2.1867165325 2.2035867872 0.11695306
H 1.6929006764 -2.0378054375 -0.0552188012
H 4.1131194241 -2.3155924885 -0.0469706092
H -1.3244855859 3.0955136587 0.1273279373
H -3.7689413124 2.5486923478 0.2084504663
H -4.3082532828 0.9126571816 0.0517926758
*
