! pbe def2-sv(p) def2/J RI DEFGRID1 loosescf d4 GCP(DFT/SV(P)) printgap
%output
    printlevel normal
end
* xyz 0 1
C -1.7722213094 -1.0629456094 -0.6816254708
C -1.0296290826 -0.4918437764 0.5462863116
H -1.7029443783 -0.601304243 1.4123421444
C -0.7204880348 1.0066712534 0.3743530732
H -1.5819750537 1.468683819 -0.13784312
C 0.5508740755 1.2429398605 -0.4665722152
H 0.8370352268 2.297377045 -0.3356301822
C 1.7128053319 0.3767492853 0.0579538826
H 2.5450082393 0.4377987743 -0.6522734821
C 1.2691046884 -1.1002747729 0.1360815168
H 2.014974683 -1.6781755305 0.6949348746
O 0.1020203181 -1.2476725291 0.9190866677
O 1.1644113789 -1.6712875619 -1.1244073514
O 2.1927645485 0.85075021 1.2797799527
O 0.3517435528 0.9417757312 -1.8301689171
O -0.4931387683 1.6423889775 1.6153441686
O -3.085827854 -0.5620103444 -0.7601348432
H -1.7539979637 -2.1566689206 -0.6159375193
H -1.2883770834 -0.7618562559 -1.6106830717
H 0.8483064696 -1.0028049329 -1.7501136202
H 1.4359309236 0.9876514197 1.8693552049
H -0.301307989 1.5477810079 -2.1991307641
H -1.2426274627 1.4839039496 2.2003291009
H -3.616846293 -0.9492424798 -0.0553193685
*
