! pbe def2-sv(p) def2/J RI DEFGRID1 loosescf d4 GCP(DFT/SV(P)) printgap
%output
    printlevel normal
end
* xyz 0 1
C -2.5828374519 0.8760555643 -0.1324420604
C -1.426153007 -0.050301399 0.1550325302
O -1.3907407988 -0.7341954695 1.1459679594
C -0.351400386 -0.0784308583 -0.9243881168
C 0.5302566147 -1.3368049301 -0.8258852593
C 1.8974597932 -1.0473360718 -0.2035256733
C 1.7311578498 -0.1049438249 0.9823470362
C 1.2400190568 1.2721829208 0.5146378567
C 0.5152166524 1.1864489646 -0.8305563034
H -3.1451195777 1.0651784455 0.7783155787
H -2.2493752112 1.8133780807 -0.5673534793
H -3.2405650529 0.3847960826 -0.8485938296
H -0.8716515896 -0.0620214369 -1.8883860786
H 0.011263661 -2.0677263307 -0.2025340978
H 0.663664044 -1.774985635 -1.8165980981
H 2.3487492011 -1.9852883845 0.1239936082
H 2.5687006902 -0.6001766955 -0.939820386
H 1.0023912994 -0.5433165284 1.6648151319
H 2.6739966039 -0.0014605287 1.5216355594
H 0.5672005584 1.6892511349 1.266500638
H 2.0823781033 1.9598144123 0.411855801
H -0.0930079673 2.080569226 -0.9790184902
H 1.2425399961 1.153762177 -1.6436999492
*
