! r2scan-3c def2/J RI DEFGRID2 scfconv6 printgap
%output
    printlevel normal
end
* xyz 0 1
C 2.0293143283 0.064313675 -0.0001448703
C 0.7594901066 -0.7741161631 0.0002011116
C -0.4821750247 0.0802950012 -3.24718e-05
O -0.520060659 1.2795597523 7.8788e-05
O -1.5940121691 -0.6732028059 -0.0001014068
H 2.9059702643 -0.5777955148 6.75225e-05
H 2.0590235288 0.7020786627 -0.8795173375
H 2.0590710945 0.7027376031 0.8787465348
H 0.7150210224 -1.4210827437 -0.8786306191
H 0.715125012 -1.4204677122 0.8795006096
H -2.3832009402 -0.1090271003 -9.09185e-05
*
