! pbe def2-sv(p) def2/J RI DEFGRID1 loosescf d4 GCP(DFT/SV(P)) printgap
%output
    printlevel normal
end
* xyz 0 1
C 3.7410749958 -0.2700897273 -0.0977225517
C 2.2900332438 -0.1545696205 0.3596426682
H 2.2766096963 0.110744472 1.4226390636
C 1.5403505639 -1.4694991322 0.1738659286
C 0.0899143522 -1.3415561689 0.6285895099
C -0.6789918605 -0.2509139533 -0.1296383493
H -0.7018023199 -0.5178038072 -1.1942889066
C 0.0930441263 1.0783712989 0.0208101835
H 0.0621325901 1.3853826371 1.0724402344
C 1.5532324804 0.9262030236 -0.4227104178
O -0.4883618976 2.1591216917 -0.6784706167
C -2.1373257303 -0.1325969959 0.3740745874
C -3.0071843156 0.6793737651 -0.5876964229
C -2.8031775772 -1.4958166066 0.5803764264
H 4.2596045974 -1.0392886825 0.4701405639
H 3.7881835962 -0.5331773949 -1.1525803794
H 4.2635128984 0.6731652881 0.0441458458
H 1.5692473252 -1.7540287216 -0.8810564461
H 2.0287207942 -2.262326316 0.7447341794
H -0.3981187072 -2.3038455468 0.4788148465
H 0.0667880329 -1.111047611 1.6964575151
H 1.5727089074 0.6748395071 -1.4883639093
H 2.0493843357 1.8915714246 -0.2995781598
H -0.4428830704 1.962689744 -1.6216633723
H -2.1160971651 0.3865066397 1.3387722229
H -4.0288543335 0.7235541663 -0.2161912673
H -3.0238450228 0.2110512999 -1.5706287793
H -2.6382756229 1.6947027018 -0.6844574125
H -2.3648418997 -2.0416966525 1.4107051724
H -2.7259449435 -2.1007028815 -0.3209907633
H -3.8590004746 -1.3531776117 0.8006853721
*
