! pbe def2-sv(p) def2/J RI DEFGRID1 loosescf d4 GCP(DFT/SV(P)) printgap
%output
    printlevel normal
end
* xyz 0 1
C -3.2615187064 -0.3220537621 0.0397803252
C -1.8157427234 -0.4934017415 -0.436773537
H -1.833298182 -0.6405988079 -1.5226230258
C -1.1275087998 -1.6836447329 0.230219305
C 0.3791487676 -1.5843167721 0.016466319
C 0.9676203823 -0.3843925846 0.7813093385
H 1.2584925016 -0.725633131 1.7803775418
C -0.0884818888 0.7275723756 0.9677423676
C -1.0651891665 0.8004487846 -0.1752449098
O -1.2702887398 1.8049901171 -0.811126413
C 2.2095741623 0.1460351349 0.1028129469
C 3.4014607058 -0.0110136143 0.6575121043
C 2.0359747692 0.8502653164 -1.2077186166
H -3.7201167333 0.5299132183 -0.455882289
H -3.839497028 -1.2148186631 -0.1878373379
H -3.292048689 -0.1547748169 1.1148947171
H -1.349960014 -1.7020635267 1.2991702276
H -1.5084480011 -2.6121320724 -0.1997613544
H 0.874615953 -2.4988678483 0.3455817399
H 0.5677950813 -1.4776998107 -1.0531425965
H -0.6752249684 0.5100585307 1.8634816066
H 0.397625571 1.6938046773 1.1096399304
H 4.2997109677 0.3536341558 0.188812879
H 3.5320385273 -0.5122090351 1.6021117617
H 2.9928126968 1.2118522693 -1.574543382
H 1.6133451778 0.1826730522 -1.9576009277
H 1.3586319125 1.6959726224 -1.108973714
*
