  17
        -23.95669183
 C          2.2029897539        1.0176530843       -0.3998288762
 C          1.1582101605       -0.0770654960       -0.2406337696
 C          1.5808641059       -1.1361692993        0.7717938395
 O         -0.0545245630        0.5577715637        0.2008278392
 C         -1.2106209118       -0.0362382441       -0.0970166700
 O         -1.3059450694       -1.0579505838       -0.7250680269
 C         -2.3731246841        0.7418988946        0.4653615269
 H          3.1320462649        0.5893648923       -0.7643584223
 H          1.8582920901        1.7682810686       -1.1061715220
 H          2.3834867165        1.4985189139        0.5581160255
 H          0.9512307827       -0.5576595429       -1.2058268068
 H          0.8112536926       -1.8999897317        0.8532041529
 H          1.7323061386       -0.6798007093        1.7474793828
 H          2.5062775336       -1.6051256475        0.4501617611
 H         -2.6439872609        0.3104483178        1.4272310454
 H         -3.2256970887        0.6560071900       -0.2017995906
 H         -2.0960063282        1.7812570375        0.6091823652
  17
        -23.95641985
 C          1.9860478614        0.8771639305       -0.6976183007
 C          1.1464555588       -0.2403405162       -0.0897367619
 C          1.8658351004       -0.9383198701        1.0575430359
 O         -0.0682545410        0.3310652398        0.4269113878
 C         -1.2242313402        0.0083861230       -0.1533944437
 O         -1.3328206126       -0.7326110995       -1.0948729732
 C         -2.3764669546        0.6881630919        0.5426234045
 H          2.9081950334        0.4680273097       -1.1000900181
 H          1.4381957771        1.3644974283       -1.5005495768
 H          2.2259622596        1.6172226979        0.0621381760
 H          0.8699835368       -0.9668460068       -0.8643678275
 H          1.2352322242       -1.7163601014        1.4806837416
 H          2.1047340865       -0.2197743437        1.8377345407
 H          2.7849673443       -1.3894174514        0.6951264459
 H         -2.0173144850        1.5167305461        1.1442656807
 H         -2.8692011490       -0.0377880731        1.1864152039
 H         -3.0955725063        1.0300579705       -0.1963144045
  17
        -23.95544033
 C          1.7737477673        0.8706661278        0.6909878555
 C          1.2589269240        0.0809198948       -0.5076952007
 C          1.4883616962       -1.4180398655       -0.3467384140
 O         -0.1254017087        0.3762324265       -0.7770523565
 C         -1.0697276345        0.0816472861        0.1173016981
 O         -0.8822612458       -0.4224637346        1.1931859973
 C         -2.4297598564        0.4575678231       -0.4197066096
 H          1.5592830819        1.9294521209        0.5629776106
 H          1.2974053454        0.5215276189        1.6029834625
 H          2.8483888928        0.7370620666        0.7779336071
 H          1.7543530842        0.4330998830       -1.4208798565
 H          2.5548603083       -1.6165534087       -0.2884271847
 H          1.0761169195       -1.9546685662       -1.1985465259
 H          1.0106149344       -1.7755920285        0.5613005904
 H         -3.0777792605        0.7477980158        0.4019129514
 H         -2.8604640819       -0.4146870697       -0.9078813568
 H         -2.3407940307        1.2593513486       -1.1456010658
