! r2scan-3c def2/J RI DEFGRID2 scfconv6 printgap
%output
    printlevel normal
end
* xyz 0 1
C -3.5950629342 -0.494526007 -1.5355746034
N -2.4374133236 -0.1269287629 -0.7586044635
C -2.4265423199 -0.2169834456 0.5925558315
O -3.3590833468 -0.5754136204 1.2590248849
O -1.254207981 0.1140054245 1.1948867779
C -0.1972891022 0.662348166 0.4870959872
C -0.2409992438 1.9667478868 0.061705395
C 0.8589644559 2.5277489462 -0.6023946005
C 1.9812685136 1.7840710705 -0.8371405745
C 2.0575902252 0.4407254336 -0.413106769
C 0.9525143072 -0.139098696 0.263811223
C 1.0248969948 -1.481933749 0.6872939983
C 2.1478227171 -2.2231063334 0.4472673349
C 3.243138667 -1.6551215027 -0.2218787209
C 3.2000939233 -0.3548851672 -0.6411685302
H -4.387244798 -0.7565558424 -0.8367356064
H -3.3774916475 -1.353201385 -2.1740403439
H -3.9194090108 0.3424437802 -2.1564277031
H -1.5941229748 0.1267566438 -1.2499095335
H -1.1250524117 2.5580077517 0.2488818221
H 0.8059330511 3.5568740791 -0.923893467
H 2.8288494594 2.2153658888 -1.349073367
H 0.1792360039 -1.9047878733 1.2085999255
H 2.1999686601 -3.2512059651 0.7730164434
H 4.1227378373 -2.2556255548 -0.401345807
H 4.0425514439 0.0862427073 -1.154087646
*
