! r2scan-3c def2/J RI DEFGRID2 scfconv6 printgap
%output
    printlevel normal
end
* xyz 0 1
C 2.562534963 2.7024334163 1.032149542
C 2.3140833427 1.7604153544 -0.1449471204
C 3.1505765181 0.4606211874 -0.0298925442
C 2.0988704302 -0.6037431352 0.0623899578
C 2.2014158895 -1.9737017675 0.1789308906
C 1.032579215 -2.7157775497 0.2452785971
C -0.2114924179 -2.1062614464 0.1975159766
C -0.3213139352 -0.7266340555 0.0787738659
C 0.8562533358 0.0171703292 0.0115265363
O 0.9251591779 1.3636003436 -0.1047114275
O -1.4945618181 0.0058600714 0.0251552032
C -2.7368801571 -0.5347272212 0.0264440633
O -3.0234379954 -1.7040557636 0.0734388555
N -3.6339355818 0.4757663498 -0.0351321779
C -5.0557185364 0.2514660437 -0.0561975516
C 2.5554639589 2.4744892571 -1.474197387
H 3.5958332893 3.0391566205 1.0320717322
H 1.9069693572 3.5662347653 0.9582597814
H 2.3530673419 2.189926698 1.9683617353
H 3.7900669977 0.3186490003 -0.9029232045
H 3.7870712898 0.4726282249 0.8568001173
H 3.1678092351 -2.4525127942 0.2169134509
H 1.0837481795 -3.7895943915 0.3363564685
H -1.1066439045 -2.7023626771 0.2499519207
H -3.2798309995 1.4177606295 -0.0747339286
H -5.2156926429 -0.8240928967 -0.0038266233
H -5.4963984491 0.637465321 -0.9776888193
H -5.5364672695 0.7304787927 0.7990548452
H 3.5880149543 2.807172993 -1.5398324136
H 1.8982158052 3.3363987074 -1.5548140595
H 2.3432512 1.8007018058 -2.3012893629
*
