! pbe def2-sv(p) def2/J RI DEFGRID1 loosescf d4 GCP(DFT/SV(P)) printgap
%output
    printlevel normal
end
* xyz 0 1
C -3.235372047 1.0285242329 0.0101519192
C -1.9046769745 0.3388615645 -0.00806724
C -1.8147447998 -1.0454422134 -0.0047145672
C -0.5761691333 -1.6566049986 -0.0004286204
C 0.6040630328 -0.9248941987 0.0012618955
C 0.529936956 0.4747431439 -0.0013260444
C -0.7296365308 1.0705903562 -0.0058190233
O 1.5668302225 1.359449713 -0.0012515375
C 2.899992777 0.9021048859 0.0005204073
O 1.8135711612 -1.5803739033 0.0036070275
H -3.1768082782 1.9946382171 -0.4846202969
H -3.9914139907 0.422447012 -0.48345135
H -3.5553380146 1.1951069675 1.039166126
H -2.7089248625 -1.6501319731 -0.0066985437
H -0.5111510635 -2.7377713765 0.0002126857
H -0.7563872701 2.1493497783 -0.0085054896
H 3.5116090021 1.8041186679 -0.0004850739
H 3.1249314213 0.3088042374 -0.8884086585
H 3.1235189106 0.3117758364 0.8917986026
H 1.6473551659 -2.5303598814 0.0039560694
*
