! pbe def2-sv(p) def2/J RI DEFGRID1 loosescf d4 GCP(DFT/SV(P)) printgap
%output
    printlevel normal
end
* xyz 0 1
C -2.5619032001 -0.6925140448 -0.2952696817
C -1.1723954295 -0.3081218049 0.2258017541
H -1.1910162942 -0.2941310826 1.3300195553
C -0.7221042327 1.0644401983 -0.2914753064
H -0.7625025132 1.0664769399 -1.3866664127
C 0.7249312982 1.3665883503 0.1458804702
H 0.7480128972 1.5253366012 1.2391171665
C 1.65242334 0.1920625883 -0.1740265702
H 1.8032191004 0.1609450245 -1.2656612751
C 1.0256868551 -1.1434754786 0.287865489
H 1.0253716137 -1.1653775423 1.391490589
O -0.2756534718 -1.3115075755 -0.2122396867
O 1.7966680059 -2.2183375909 -0.1233714708
O 2.869855832 0.3793755767 0.4932489197
O 1.1928548473 2.5081928145 -0.5183136737
O -1.5801347296 2.1014521126 0.1140022791
O -3.0442539747 -1.8505026187 0.3230927867
H -2.4982370327 -0.821323994 -1.3841780039
H -3.2704516045 0.1066109537 -0.0704845285
H 1.6030300134 -2.3884720137 -1.0539840433
H 3.3943530602 -0.4258182751 0.3928692406
H 0.498696275 3.179664801 -0.4767294364
H -1.6402317595 2.1055215713 1.0777530003
H -2.3859904933 -2.5454393124 0.1996469114
*
