! r2scan-3c def2/J RI DEFGRID2 scfconv6 printgap
%output
    printlevel normal
end
* xyz 0 1
C -2.8092425279 0.799987959 0.6907863156
O -2.101482988 0.5113335663 -0.4927510909
C -0.8316212394 -0.000488327 -0.269519148
C -0.6386275897 -1.3743713012 -0.204037026
C 0.6417043208 -1.8681087837 -0.0232557437
C 1.7184385875 -1.0125750916 0.0962361192
C 1.5318609052 0.3690029461 0.0334006684
C 0.2422771589 0.8658037135 -0.1478911615
N 2.5924217075 1.2325335413 0.2205287339
H -2.2863759416 1.5487449088 1.2975180657
H -2.9581838399 -0.1013780056 1.2969190522
H -3.7761324458 1.1934443809 0.3816575953
H -1.4835934472 -2.0368969583 -0.3074032929
H 0.8018198422 -2.9353304948 0.0226278859
H 2.7149291965 -1.4059486409 0.236992259
H 0.074897753 1.9316833725 -0.2062146464
H 3.5104357019 0.8517281952 0.0577714326
H 2.464923409 2.172979974 -0.1166390833
*
