! pbe def2-sv(p) def2/J RI DEFGRID1 loosescf d4 GCP(DFT/SV(P)) printgap
%output
    printlevel normal
end
* xyz 0 1
C -2.2823546706 -0.9956179799 -0.2351297423
C -1.2234024529 -0.1331202174 0.5161047495
H -1.6820305305 0.3172869295 1.4052269582
C -0.6542717878 1.0053652481 -0.3490477093
H -0.5598699727 0.6830482777 -1.3964681542
C 0.7485385605 1.3459237438 0.171473501
H 0.6876598319 1.5163650048 1.2587260487
C 1.6686917149 0.1469966648 -0.0945126285
H 1.9491504316 0.1592898413 -1.158242079
C 0.8969915691 -1.1595645425 0.1688884299
H 1.5553773884 -1.8465543088 0.7227502818
O -0.1946110783 -0.9624754905 1.0334310046
O 0.5045456752 -1.6851386544 -1.0564595775
O 2.8058336513 0.1724632152 0.7223647286
O 1.2829236623 2.474457348 -0.4680576738
O -1.4382538953 2.1758799645 -0.2637594587
O -2.0694344145 -2.3703966795 -0.0406448865
H -2.2179509572 -0.8370621024 -1.3150853537
H -3.2901549516 -0.7156353316 0.1031425895
H -0.1828603096 -2.3558830637 -0.9008343463
H 3.2345979635 1.0276304633 0.5942202501
H 0.5846284917 3.1410592449 -0.4961777432
H -2.2981057419 2.0151670036 -0.664694933
H -1.8448670124 -2.5082809564 0.8896978071
*
