! pbe def2-sv(p) def2/J RI DEFGRID1 loosescf d4 GCP(DFT/SV(P)) printgap
%output
    printlevel normal
end
* xyz 0 1
C 1.9536104762 2.3615215901 1.3287592914
C 1.5279429711 1.7016684705 0.0184434796
C 2.5816811957 0.6777362937 -0.4753161991
C 1.8690655618 -0.6330595828 -0.3294659233
C 2.2907475622 -1.9252747265 -0.5547433561
C 1.3965776591 -2.9622367317 -0.3255500392
C 0.1105432412 -2.7049269957 0.115077388
C -0.3268977585 -1.4030890436 0.3430888588
C 0.5768893583 -0.3682264934 0.1166348061
O 0.3192998689 0.9522147355 0.2777116401
O -1.5860520452 -1.2144379835 0.8692147938
C -2.4025694666 -0.1954927671 0.4767103311
O -3.2823457954 0.1771881219 1.2046387889
N -2.204468403 0.259218195 -0.7813485512
C -2.940137379 1.3815828536 -1.3054232488
C 1.2005278623 2.7521285764 -1.0403212524
H 2.8441994907 2.9650518759 1.1748486224
H 1.1520682686 2.9957721576 1.6984002512
H 2.1615214328 1.5997787624 2.0769543292
H 2.863322811 0.8622981044 -1.5143748502
H 3.4874164415 0.7154278858 0.1310581465
H 3.2944817012 -2.1239370328 -0.8966317068
H 1.7054236682 -3.9824824686 -0.4901881483
H -0.5810105561 -3.5099651574 0.3045969333
H -1.4348518638 -0.0936011152 -1.3268511946
H -2.2847978038 2.2433256776 -1.4507969907
H -3.7108569142 1.6337637355 -0.5796479549
H -3.4071193048 1.1181763279 -2.2558612617
H 0.4025743121 3.3976850205 -0.6822814818
H 0.8728780926 2.2714802018 -1.9600711777
H 2.0783185043 3.3572077077 -1.2499833045
*
