! r2scan-3c def2/J RI DEFGRID2 scfconv6 printgap
%output
    printlevel normal
end
* xyz 0 1
C -3.6967637423 0.0375608963 -0.1122520358
C -2.2252117175 0.0191283128 0.2902252169
H -2.1450582122 -0.3829350176 1.3065532196
C -1.6251289246 1.4235992257 0.2733991839
C -0.1508568388 1.3834860928 0.6581639694
C 0.651519728 0.5059680664 -0.3167155814
H 0.4726620356 0.8942987305 -1.3277349747
C 0.0453361272 -0.8837848318 -0.2793013566
O 0.6309094417 -1.8921805964 0.0245667589
C -1.4221304301 -0.8897083902 -0.6495841897
C 2.1695837368 0.5726807088 -0.0644479296
C 2.5776672922 0.0507025867 1.3115170257
C 2.9223842736 -0.1835749121 -1.1586450263
H -4.1128500535 -0.9667603935 -0.0903704975
H -4.2694561345 0.6609842897 0.5705653124
H -3.8118790193 0.4353514442 -1.1185330161
H -1.7354596282 1.8547798876 -0.7248954412
H -2.1683751804 2.0619547673 0.9735144828
H 0.2660745768 2.3930054272 0.6542629365
H -0.0563554271 0.9843158687 1.6694278596
H -1.5295142748 -0.5288722309 -1.6752588123
H -1.7962552544 -1.9138214934 -0.6000775331
H 2.4520526738 1.6324831898 -0.1257266112
H 2.1350481713 0.6452975067 2.1068489089
H 3.6592157094 0.1018002339 1.4160205326
H 2.269706187 -0.9835613505 1.4290008213
H 2.6519876413 0.1898447356 -2.1448767421
H 2.6885971422 -1.2432286965 -1.1110362979
H 3.9953546615 -0.0618795206 -1.0299290839
*
