! pbe def2-sv(p) def2/J RI DEFGRID1 loosescf d4 GCP(DFT/SV(P)) printgap
%output
    printlevel normal
end
* xyz 0 1
C -1.8394632394 0.0753350687 -0.3385453265
C -0.6075280813 -0.4903592979 0.3564075081
C 0.576114856 0.4861458188 0.3581388491
O 1.6569395121 -0.1239298975 -0.3192862571
H -1.6120363161 0.3282317475 -1.3713156511
H -2.6437167466 -0.6565171459 -0.3333432539
H -2.188990577 0.9720914581 0.169378205
H -0.2740942714 -1.3895343221 -0.1634582755
H -0.8621517583 -0.7701583593 1.3792531688
H 0.2947022345 1.4206228036 -0.1479635158
H 0.8724730392 0.7354294396 1.3869304871
H 2.406531122 0.4795512049 -0.331883029
*
