! pbe def2-sv(p) def2/J RI DEFGRID1 loosescf d4 GCP(DFT/SV(P)) printgap
%output
    printlevel normal
end
* xyz 0 1
C -2.3577870294 -0.854346103 0.5637468226
C -0.9030709226 -0.3816769083 0.6605581736
H -0.5977521026 -0.3410605324 1.7131580592
C -0.7376554908 1.0146863656 0.0451535951
H -1.3530088089 1.0712744237 -0.8647288247
C 0.7376269223 1.2699616187 -0.3722084344
H 0.992296704 2.3000150358 -0.0812687846
C 1.6822194746 0.2979335423 0.349828356
H 2.6996441874 0.4338709213 -0.0523607938
C 1.269688621 -1.1461317602 0.0224779586
H 1.6843522036 -1.8060877764 0.8070068018
O -0.1226466636 -1.3352200778 -0.0450496181
O 1.7987465258 -1.4650060981 -1.2297759752
O 1.6762004188 0.4414806 1.7455754046
O 0.9142088621 1.203522337 -1.7603882981
O -1.1722034382 1.9451359133 1.0101833785
O -2.7840116121 -0.9609411883 -0.7668845099
H -3.0037278567 -0.1214140571 1.0490248072
H -2.4489591659 -1.81966975 1.079987982
H 1.4848357664 -2.3425591964 -1.4792108166
H 1.6756192575 1.3793235873 1.9692381519
H 1.0792881179 0.2816224985 -2.0075892859
H -1.3221016895 2.7933861515 0.5787568833
H -2.1340419739 -1.5022524017 -1.2315465659
*
