! r2scan-3c def2/J RI DEFGRID2 scfconv6 printgap
%output
    printlevel normal
end
* xyz 0 1
C 2.4531916436 -1.2011572825 0.0012815721
C 1.7022423184 0.1051872871 -4.95964e-05
O 2.2700099234 1.1733842941 -0.001208678
C 0.21577384 0.0276369845 -8.953e-07
C -0.5138239307 1.2190177275 0.0006284617
C -1.8947080895 1.1692322364 0.000670249
C -2.5030130058 -0.0786562097 7.27679e-05
N -1.8267077874 -1.2151760104 -0.0006473314
C -0.5082919761 -1.1654412646 -0.000694177
H 3.5215636316 -1.0005378082 0.0029007193
H 2.1960551971 -1.7808087008 -0.8826528629
H 2.1932208766 -1.7810415003 0.8842010502
H 0.0225642598 2.1570021344 0.0010838824
H -2.4861894671 2.0714532537 0.0011746439
H -3.580491079 -0.1789405003 0.0001758159
H -0.018884824 -2.1297567116 -0.0014427052
*
