! pbe def2-sv(p) def2/J RI DEFGRID1 loosescf d4 GCP(DFT/SV(P)) printgap
%output
    printlevel normal
end
* xyz 0 1
C -2.088834687 -1.0785230225 -0.1446219019
C -1.0667133622 -0.4202691331 0.8099233157
H -1.5184560975 -0.4151877824 1.808934564
C -0.7380079255 1.0523323136 0.4743265492
H -1.6068958502 1.4831751596 -0.0344482813
C 0.4874395366 1.235833075 -0.4471167881
H 0.8291826425 2.2751310589 -0.3097673212
C 1.6345820962 0.312602366 -0.0063546604
H 2.4382591547 0.3400926588 -0.7618016449
C 1.1257737407 -1.134487946 0.0912998718
H 1.9209540241 -1.7727903648 0.5245881825
O 0.0832947001 -1.251871805 1.0031460359
O 0.8111865554 -1.5603793536 -1.1999005688
O 2.0958251458 0.7756626476 1.2383534405
O 0.111874384 1.0175002226 -1.7802424179
O -0.558505514 1.7964925282 1.6495600961
O -2.0652338405 -0.672703341 -1.4818516181
H -3.0958960415 -0.8540335909 0.220656944
H -1.9410043283 -2.1695297235 -0.0679928754
H 0.3449018582 -2.4040174697 -1.1515381724
H 2.7016051515 0.1302606722 1.62078904
H 0.8951776971 0.9725801217 -2.3395843863
H 0.2988715707 1.5530854157 2.0284540634
H -1.1660402391 -0.4133427628 -1.7401064627
*
