! pbe def2-sv(p) def2/J RI DEFGRID1 loosescf d4 GCP(DFT/SV(P)) printgap
%output
    printlevel normal
end
* xyz 0 1
C -1.7889976544 -1.0375612589 -0.6939989384
C -1.0307814471 -0.4565175729 0.5109169154
H -1.7081023747 -0.5277144743 1.3698562567
C -0.6947817617 1.0366010475 0.3196753734
H -1.519494506 1.4926978161 -0.2371820621
C 0.6143990688 1.2436855386 -0.4698900532
H 0.9056804817 2.2942622596 -0.3326587902
C 1.7326058327 0.3524003346 0.1071899993
H 2.6219641266 0.4125242755 -0.5452312962
C 1.2539958164 -1.114740069 0.1246343278
H 1.9842267128 -1.7442790252 0.6542523129
O 0.0878864322 -1.2454969855 0.8891089863
O 1.1708095533 -1.6294170613 -1.1623502562
O 2.0350043469 0.8201076716 1.3996153281
O 0.3980253054 0.9554755338 -1.8382721741
O -0.6275830659 1.7173001372 1.5405483655
O -3.1358935617 -0.6391374051 -0.5692945359
H -1.6937048033 -2.131276216 -0.6621927239
H -1.3726757158 -0.6655140253 -1.6386258799
H 0.6834036309 -0.9983633298 -1.7169447322
H 2.5612480714 0.1587191635 1.8636718658
H 1.1116278494 1.3395208334 -2.3601227317
H 0.173862673 1.4266217294 2.0011232418
H -3.6391526363 -1.0056083134 -1.3037251055
*
