! pbe def2-sv(p) def2/J RI DEFGRID1 loosescf d4 GCP(DFT/SV(P)) printgap
%output
    printlevel normal
end
* xyz 0 1
C -2.1788860232 -0.9097778291 -0.1373689416
C -1.1104094162 -0.3328546668 0.8136886499
H -1.5659329783 -0.3098747024 1.811693426
C -0.72139208 1.1282005667 0.4785354868
H -1.5805251541 1.6099577925 -0.0041821029
C 0.4914592149 1.2409413351 -0.4738050353
H 0.84328262 2.2807561265 -0.4147462541
C 1.6116737873 0.3137477067 0.0097298295
H 2.4323246865 0.3208605742 -0.7260561358
C 1.0689297258 -1.1317658705 0.1041866618
H 1.8397959481 -1.7739066644 0.5635226357
O -0.006669578 -1.2221712722 0.9825408822
O 0.8251862572 -1.6271232751 -1.1813398584
O 2.0562216262 0.7786248065 1.2621476622
O 0.1273816942 0.976662778 -1.8102031032
O -0.4902888946 1.8617906746 1.6493223465
O -1.7837600285 -0.9999538028 -1.4844563348
H -3.0859465543 -0.3004922667 -0.0408672266
H -2.4053782324 -1.9324620599 0.1741793037
H -0.1465023802 -1.6861075186 -1.3269785883
H 2.6615633751 0.1336336782 1.6456980858
H 0.5872515213 0.1745007871 -2.106094944
H 0.3803147411 1.6089923466 1.9926191736
H -1.523872964 -0.1166370924 -1.8038098467
*
