! r2scan-3c def2/J RI DEFGRID2 scfconv6 printgap
%output
    printlevel normal
end
* xyz 0 1
C 1.5887441025 -0.5123460381 -0.1204068881
C 0.6135400635 0.5849527707 0.3041489909
O -0.6400689732 0.4976147693 -0.3342155923
C -1.4986020714 -0.5204311411 0.1364227887
H 1.2220895549 -1.4943877512 0.1701314506
H 1.7139313077 -0.4959817896 -1.1999055404
H 2.5536747704 -0.3482734338 0.3514612618
H 1.0075094655 1.5611556994 0.0092792665
H 0.4895379887 0.5752424861 1.3972375862
H -1.010274753 -1.1651230549 0.869038951
H -1.8233559329 -1.1303830085 -0.7097420723
H -2.3783392165 -0.0647243615 0.6024767094
*
