! pbe def2-sv(p) def2/J RI DEFGRID1 loosescf d4 GCP(DFT/SV(P)) printgap
%output
    printlevel normal
end
* xyz 0 1
C 2.3797178457 0.5384407872 -1.1063407083
C 1.7255740599 -0.0793184318 0.1025626534
O 2.3318997843 -0.5632947343 1.0217229709
C 0.2282516214 -0.0306821116 0.0516872218
C -0.467985005 1.0472335206 0.5869654772
C -1.8519316167 1.041138426 0.5063096367
N -2.5450496035 0.0651707886 -0.0528440731
C -1.8811272462 -0.9606221705 -0.5553477938
C -0.4986560965 -1.0617218501 -0.5328708695
H 3.4611087329 0.4556338358 -1.0360136059
H 2.0932009829 1.5867232433 -1.1730156717
H 2.0254793295 0.0395466805 -2.0065516698
H 0.0575465638 1.8634748483 1.0585110192
H -2.4358704367 1.8585913597 0.9083616324
H -2.4881771879 -1.7387694197 -0.9990015583
H 0.0019157473 -1.921641761 -0.9510732137
*
