! pbe def2-sv(p) def2/J RI DEFGRID1 loosescf d4 GCP(DFT/SV(P)) printgap
%output
    printlevel normal
end
* xyz 0 1
C 3.3046228697 -0.3329588765 0.8887979744
C 1.937432825 -0.1762172325 0.3100878634
C 1.4324835779 1.0165937045 -0.0204224228
C 0.084190655 1.2261352977 -0.5395462097
O -0.3621909044 2.3425374311 -0.7170062788
C -0.7667032513 -0.0038070426 -0.8255595684
H -1.2245934759 0.1763441392 -1.8065108479
C 0.0689423515 -1.2809899263 -0.9359114099
C 1.142645853 -1.4311477291 0.1385773859
C -1.9515353995 -0.0148376809 0.171470586
C -3.0265099857 -1.0173209486 -0.2420724038
C -1.5417247752 -0.253087984 1.6228731471
H 3.9397575446 -0.8857167132 0.1963021173
H 3.2569981898 -0.904271671 1.815360584
H 3.7637848105 0.6312097846 1.0888844294
H 2.0107757222 1.9198969569 0.1205277281
H -0.5846774257 -2.1541409687 -0.9284259768
H 0.5719429541 -1.2605809419 -1.9068941579
H 0.6975102548 -1.6893709557 1.1022553375
H 1.8109224619 -2.2538899681 -0.1299413126
H -2.3851366735 0.9901376816 0.1084086248
H -3.3422710456 -0.847300115 -1.2687009939
H -3.8951421855 -0.9142458471 0.404318434
H -2.6652166001 -2.0398699836 -0.1559958094
H -0.6965724657 0.3737846072 1.8974620452
H -1.2849623901 -1.2963065112 1.7912177028
H -2.3729825399 -0.0079856081 2.2811970283
*
