! pbe def2-sv(p) def2/J RI DEFGRID1 loosescf d4 GCP(DFT/SV(P)) printgap
%output
    printlevel normal
end
* xyz 0 1
C -2.2921771576 -1.0338897327 -0.3051433593
C -0.9159460809 -0.5605923246 0.1587552833
H -0.8268441513 -0.7615218233 1.2382321593
C -0.7455602701 0.9623374175 -0.063910266
H -1.3792063766 1.2914582614 -0.9009798982
C 0.721174984 1.2445511622 -0.4467905114
H 0.9385806012 2.3025720025 -0.2708064678
C 1.633198359 0.3672962295 0.4284643712
H 2.6863625955 0.5660630338 0.188353064
C 1.3627322901 -1.1250694057 0.0714434855
H 1.4033082868 -1.7258289078 0.9918962546
O 0.0782430663 -1.2765126821 -0.5384011231
O 2.3032525009 -1.6480093934 -0.7859537105
O 1.4590528484 0.6214752775 1.7954795461
O 0.9394041923 1.0052987255 -1.8134438058
O -1.0690949893 1.6793116141 1.103990121
O -3.247762779 -0.2542069397 0.3830315992
H -2.4034395997 -2.1002046787 -0.0776145569
H -2.3764832671 -0.8955225743 -1.3911816372
H 2.3550047011 -1.098178393 -1.5800853752
H 0.6153528167 1.081979677 1.9273122814
H 0.5745968327 0.1297731486 -2.0145597785
H -1.9895560052 1.4787853701 1.3200741895
H -4.1295771325 -0.5587196313 0.1454543602
*
