! pbe def2-sv(p) def2/J RI DEFGRID1 loosescf d4 GCP(DFT/SV(P)) printgap
%output
    printlevel normal
end
* xyz 0 1
C -1.8542341906 -0.8395115116 0.4628601333
S -0.8933902651 0.4119168516 -0.4718041393
S 0.8988503087 0.4177299061 0.4718885886
C 1.8412984606 -0.8360390683 -0.4645815568
H -1.2123311821 -1.2789662063 1.2178035042
H -2.1986663092 -1.5966339184 -0.2340026948
H -2.6991179786 -0.3448579359 0.9301555698
H 2.8361952659 -0.8509210921 -0.0331627512
H 1.8852645146 -0.5439106875 -1.5083986125
H 1.3691319816 -1.8074078853 -0.3545672829
*
