! pbe def2-sv(p) def2/J RI DEFGRID1 loosescf d4 GCP(DFT/SV(P)) printgap
%output
    printlevel normal
end
* xyz 0 1
C -1.8801595427 -0.6910969038 -0.1879526004
C -0.961097224 0.455712725 0.2090623968
C 0.502747125 0.0913136164 0.0148185403
O 0.8945012244 -0.971721198 -0.4035706396
N 1.358200935 1.087352849 0.3601138262
H -1.7241971934 -0.9497058831 -1.2317380003
H -1.6594754507 -1.5705461524 0.4108698203
H -2.9216687683 -0.4148356685 -0.0425245346
H -1.1129741799 0.7182548299 1.259001104
H -1.1768335975 1.341611091 -0.3934794854
H 1.0410185293 1.9736059654 0.7080188656
H 2.347704806 0.9327325061 0.2635068682
*
