  25
        -35.03756236
 C         -4.2206847908       -0.3099191959       -0.0719050252
 C         -2.7365691058       -0.1117523878       -0.0201715860
 C         -2.1273460820        0.8853441822       -0.7725153310
 C         -0.7617995544        1.0894612480       -0.7066912250
 C          0.0289847921        0.2816753677        0.1008723399
 C         -0.5748658177       -0.7107742267        0.8650486631
 C         -1.9427581683       -0.9008186001        0.8035975916
 C          1.4932438745        0.5649025933        0.2210668446
 O          1.8934341770        1.6228265014        0.6739391105
 N          2.3378722024       -0.4163266970       -0.1801679998
 C          3.7614819773       -0.2336270173       -0.0230095629
 C          1.9413877342       -1.6359994015       -0.8341121091
 H         -4.6128156497       -0.0528469417       -1.0532574214
 H         -4.4842574554       -1.3399454891        0.1568922101
 H         -4.7058249880        0.3335109021        0.6628429166
 H         -2.7312682449        1.5130868947       -1.4120761757
 H         -0.2978487701        1.8756571835       -1.2834201151
 H          0.0275725973       -1.3276112691        1.5164822324
 H         -2.4018742134       -1.6730232637        1.4045710178
 H          3.9253610119        0.7174344396        0.4798238123
 H          4.2574982877       -0.2193459424       -0.9967624844
 H          4.1815247759       -1.0437761247        0.5775211491
 H          2.1470466642       -2.5009527573       -0.1956743922
 H          2.5082731777       -1.7537390234       -1.7619365124
 H          0.8808726704       -1.6153633219       -1.0719022291
  25
        -35.03739529
 C         -4.2134942828       -0.3291996844        0.0982818570
 C         -2.7308585656       -0.1215524629        0.0363532288
 C         -2.0105314399        0.2438505149        1.1661035301
 C         -0.6442183607        0.4500657646        1.1009394925
 C          0.0296926213        0.2915285495       -0.1032504978
 C         -0.6857113808       -0.0611104432       -1.2409516792
 C         -2.0499646544       -0.2700407481       -1.1666878162
 C          1.4958017437        0.5907029026       -0.1974376126
 O          1.8974492479        1.6794085646       -0.5653036307
 N          2.3333685875       -0.4136755814        0.1540005728
 C          3.7604968309       -0.2008062864        0.1091399017
 C          1.9149714439       -1.7285235420        0.5630959556
 H         -4.5054833358       -1.2022978712       -0.4820406686
 H         -4.5468476258       -0.4596432575        1.1248286315
 H         -4.7278332630        0.5363242958       -0.3199844457
 H         -2.5241355137        0.3707601927        2.1085281177
 H         -0.0964135387        0.7386858512        1.9863822636
 H         -0.1685793200       -0.1710301792       -2.1829230090
 H         -2.5974132657       -0.5489027365       -2.0557888614
 H          3.9374722269        0.8235814736       -0.2128485837
 H          4.2276060352       -0.8911210753       -0.5974249044
 H          4.1987216387       -0.3544701809        1.0980783705
 H          2.2522307058       -1.9324535442        1.5838299492
 H          2.3512485763       -2.4819311513       -0.0994338229
 H          0.8316533072       -1.8109609487        0.5256511300
