! r2scan-3c def2/J RI DEFGRID2 scfconv6 printgap
%output
    printlevel normal
end
* xyz 0 1
C -2.2727531793 -0.9422017211 0.1831436068
O -1.0152086082 -0.6621652666 -0.421474396
C -0.4574503712 0.5052442418 -0.1126592341
O -0.9458623451 1.3348554826 0.600244933
C 0.9051755763 0.6383284492 -0.7899769034
C 1.8650874287 -0.1321980933 -0.0397406171
N 2.6154016322 -0.7468701236 0.5630031442
H -2.9936049025 -0.1610090411 -0.0652647812
H -2.1655354269 -0.9931562198 1.2679978314
H -2.5920875432 -1.9014572443 -0.2147743252
H 1.2061163876 1.6878043733 -0.7952576079
H 0.8517475197 0.2444036029 -1.8068375711
*
