! pbe def2-sv(p) def2/J RI DEFGRID1 loosescf d4 GCP(DFT/SV(P)) printgap
%output
    printlevel normal
end
* xyz 0 1
C -2.4959866483 -1.0083004152 -0.0051799524
C -1.7181844646 0.2084704061 -0.4964065723
C -0.5908044032 0.6302231768 0.4575368541
C 0.8330118128 0.1685161724 0.0916185541
C 1.3084540782 0.8561649402 -1.1907746246
C 1.7668973201 0.5757519814 1.2372322455
C 0.9070579661 -1.3487073317 -0.0847942898
H -2.9547994231 -0.8006309634 0.9595243321
H -3.2865037458 -1.2607949732 -0.7094137513
H -1.8480420368 -1.8730991787 0.1043323101
H -1.3176178921 0.0022071276 -1.4892056191
H -2.4200743637 1.038768042 -0.6029928002
H -0.8271772719 0.2591886205 1.4574567984
H -0.5691453597 1.7209290579 0.5190406735
H 2.3321631529 0.565053258 -1.4165282179
H 0.6872992811 0.5841012156 -2.0402901239
H 1.2774088771 1.9377765197 -1.0781671502
H 2.7940273979 0.2992839288 1.0091750821
H 1.478457459 0.0815891979 2.1625841103
H 1.7309006511 1.6510674192 1.3986258884
H 1.935957941 -1.6535780091 -0.266529142
H 0.5564142674 -1.8553972702 0.8116465371
H 0.3062516188 -1.6750635255 -0.9292779072
*
