! pbe def2-sv(p) def2/J RI DEFGRID1 loosescf d4 GCP(DFT/SV(P)) printgap
%output
    printlevel normal
end
* xyz 0 1
C -2.651698681 -0.5739884846 0.7701485294
C -1.8472050054 -0.6294286832 -0.5321480478
C -0.3797008284 -0.3927190699 -0.2817135636
C 0.4966316829 -1.465499896 -0.193855664
C 1.8430851281 -1.2807929464 0.06033592
C 2.3369936467 0.0010856513 0.2316551465
C 1.4849107543 1.0840356545 0.1508464848
C 0.1296367064 0.896221116 -0.0990864424
O -0.6517281964 2.0114786488 -0.1568418822
H -2.5320025523 0.3853349582 1.2701728197
H -2.3088086141 -1.3502035378 1.4503606836
H -3.7099239556 -0.7306142008 0.5715981135
H -2.2429659671 0.1025162354 -1.2451828825
H -1.9741239207 -1.6146453093 -0.9845324481
H 0.1099850712 -2.4656505709 -0.3306153012
H 2.5030545893 -2.1327398084 0.1226970703
H 3.3866714438 0.1588928803 0.4287770026
H 1.8437754111 2.0927824983 0.2817096126
H -1.5645194537 1.7608556386 -0.3406373656
*
