  18
        -22.22081048
 C         -1.8129072829       -1.4610414761        0.0001123122
 C         -0.5225713164       -0.6990306084        0.0000175192
 C          0.6891167679       -1.3754762444       -0.0000866560
 C          1.8917433811       -0.6913847686       -0.0001147033
 C          1.8917814541        0.6913231437        0.0001037454
 C          0.6891851503        1.3754481901        0.0001072163
 C         -0.5225327024        0.6990424441        0.0000130478
 C         -1.8128113019        1.4611133556       -0.0001343939
 H         -2.4062588995       -1.2119504762        0.8796148460
 H         -2.4061698539       -1.2124357735       -0.8795838955
 H         -1.6277188060       -2.5322849107        0.0004306870
 H          0.6903718316       -2.4567026434       -0.0000841973
 H          2.8239707375       -1.2370374801       -0.0002265905
 H          2.8240425572        1.2369084495        0.0000983572
 H          0.6903990104        2.4566767304        0.0001247465
 H         -1.6275518818        2.5323154042       -0.0005353262
 H         -2.4061428261        1.2119711380       -0.8796522885
 H         -2.4061680261        1.2126106329        0.8795981134
  18
        -22.21901409
 C         -1.7966054407       -1.5034372380       -0.0004654874
 C         -0.5324411913       -0.6919243535        0.0008176389
 C          0.6814331211       -1.3701534233        0.0002586617
 C          1.8860206367       -0.6936972855       -0.0002899637
 C          1.8889864699        0.6898976698       -0.0001033245
 C          0.6879948391        1.3740290433        0.0001171139
 C         -0.5300708636        0.7042091971        0.0003467156
 C         -1.8050588181        1.4972934388       -0.0001650069
 H         -2.6854873830       -0.8828927564        0.0278555930
 H         -1.8383756877       -2.1241661973       -0.8953223883
 H         -1.8123593068       -2.1680056475        0.8628865668
 H          0.6740489544       -2.4514510358        0.0005380976
 H          2.8164191850       -1.2424246255       -0.0007435256
 H          2.8219151159        1.2343080661       -0.0004639076
 H          0.6931015042        2.4552794979       -0.0003081033
 H         -1.5876879503        2.5626691313       -0.0034298436
 H         -2.4035990251        1.2686041906       -0.8813938157
 H         -2.4011502085        1.2739916965        0.8842280856
