! pbe def2-sv(p) def2/J RI DEFGRID1 loosescf d4 GCP(DFT/SV(P)) printgap
%output
    printlevel normal
end
* xyz 0 1
C -0.7178152353 -0.5870731986 -0.2871030944
C 0.6979431168 -0.6182760957 0.2903976138
O 1.3723357116 0.5301042325 -0.1878286524
O -1.4399064249 0.5225070549 0.1744845273
H -1.2689080426 -1.4752149038 0.027914464
H -0.6488230757 -0.5742778487 -1.3840073063
H 1.2068565287 -1.5359267226 -0.0323412337
H 0.6453411958 -0.6033755251 1.3872842753
H 2.2676635274 0.5426072121 0.1629080986
H -0.8926997477 1.3010159886 0.0108059663
*
