! pbe def2-sv(p) def2/J RI DEFGRID1 loosescf d4 GCP(DFT/SV(P)) printgap
%output
    printlevel normal
end
* xyz 0 1
C -2.4626395367 -0.521029361 -0.1565334361
C -1.030248289 -0.1919545109 0.2732778007
H -0.9609906838 -0.2763725283 1.369333459
C -0.6187890037 1.2367696952 -0.1390789416
H -1.1360898313 1.5236239851 -1.0598209166
C 0.8984120519 1.2963080942 -0.4211991612
H 1.2392560877 2.308814904 -0.1615685117
C 1.6205499721 0.275309836 0.4724066222
H 2.7052979881 0.3087501008 0.2798468057
C 1.1437481479 -1.1469719383 0.07568284
H 1.297429209 -1.8283995848 0.9334653198
O -0.1989248537 -1.1707541928 -0.3272756792
O 1.9083894697 -1.644346868 -0.9657078678
O 1.3453505119 0.6076112765 1.8129307883
O 1.1260831547 1.019649702 -1.782176029
O -0.9911992865 2.170097194 0.8323757413
O -2.8658640321 -1.7782022342 0.3103500241
H -2.5160426136 -0.4750020378 -1.2529246948
H -3.1457550969 0.2142104737 0.2717090228
H 1.5730488418 -1.2289875316 -1.7751144838
H 1.8063792502 -0.0078770819 2.3943111918
H 2.0410183158 1.2319984636 -2.0000924346
H -0.4890806146 1.9786060723 1.6367056213
H -2.2047542129 -2.4168621492 0.0151644585
*
