! pbe def2-sv(p) def2/J RI DEFGRID1 loosescf d4 GCP(DFT/SV(P)) printgap
%output
    printlevel normal
end
* xyz 0 1
C -2.5597084216 -0.7081799911 -0.2785753038
C -1.1735402033 -0.3006499748 0.2362422914
H -1.2027608283 -0.2247606246 1.338993625
C -0.716942027 1.0419569936 -0.3480478865
H -0.7082300929 0.9785202314 -1.4414049952
C 0.7009970863 1.3414171748 0.152426104
H 0.6681675911 1.4734453595 1.2507884415
C 1.6554098398 0.1804945547 -0.1580048615
H 1.8123754538 0.1256625455 -1.2447785327
C 1.0531106467 -1.1551387055 0.3011677575
H 1.0776930175 -1.1798310647 1.4113307056
O -0.2792599853 -1.3273244067 -0.138380114
O 1.7994900768 -2.1736175531 -0.2476973646
O 2.8681681098 0.3537675602 0.5188310787
O 1.2185985797 2.5066565733 -0.4432796959
O -1.5856529064 2.1035931522 -0.0384581427
O -3.0430879004 -1.8454040333 0.3774184763
H -2.4883898896 -0.8751701208 -1.3612608406
H -3.2730161992 0.0951668407 -0.0860357163
H 1.3736893979 -3.0167233336 -0.0509784719
H 3.2317810709 1.2040843208 0.241100322
H 0.488629293 3.1307039673 -0.5510131417
H -1.7115274322 2.1422004423 0.9181612443
H -2.3956901612 -2.5497660723 0.253353892
*
