! pbe def2-sv(p) def2/J RI DEFGRID1 loosescf d4 GCP(DFT/SV(P)) printgap
%output
    printlevel normal
end
* xyz 0 1
C -1.8288754426 0.6307331831 -0.1334796187
C -1.3561639541 -0.5354921679 0.2589368653
C 0.0801015605 -0.9369084533 0.3305369339
Cl 1.2074509867 0.3438666703 -0.1832524791
H -2.8855363882 0.8318089865 -0.1524601871
H -1.1796331551 1.4287922541 -0.4505384312
H -2.0236183932 -1.3278537053 0.5749202064
H 0.3505562442 -1.2005181044 1.3558593722
H 0.2671021323 -1.7977492889 -0.3158710093
*
