! pbe def2-sv(p) def2/J RI DEFGRID1 loosescf d4 GCP(DFT/SV(P)) printgap
%output
    printlevel normal
end
* xyz 0 1
C -2.3441370105 -0.8224252392 0.5757453658
C -0.9145677881 -0.2864226731 0.7960113666
H -0.823339684 0.059431367 1.8379938363
C -0.64037861 0.9028457072 -0.1423515004
H -0.9002608208 0.6037280144 -1.1642758796
C 0.8421112994 1.3401725021 -0.1035037642
H 0.9699886089 2.123394215 0.6547123572
C 1.7824225478 0.16620711 0.2772446729
H 2.7300550727 0.3126206785 -0.2503688477
C 1.1294489482 -1.144165529 -0.1685279249
H 1.7845908654 -2.0017641529 0.057208457
O -0.0214677407 -1.3899178233 0.5966177196
O 0.874389193 -1.0573948658 -1.5375686132
O 2.0837600011 0.1192757268 1.6454742215
O 1.2357900365 1.9222179988 -1.3128832272
O -1.5151791011 1.9575766683 0.1579686816
O -2.4246365145 -1.5970653547 -0.5873826345
H -3.0239553139 0.0210307707 0.4473034044
H -2.6478974756 -1.4100035354 1.4529891738
H 0.3706712476 -1.8284125976 -1.8261768781
H 1.3995862657 -0.3870250894 2.1011175871
H 1.1615986611 1.2545485589 -2.0071798788
H -1.2208515487 2.4071172109 0.9590579276
H -1.7642209312 -2.2970065981 -0.501532386
*
