! r2scan-3c def2/J RI DEFGRID2 scfconv6 printgap
%output
    printlevel normal
end
* xyz 0 1
C -2.7002269299 -0.3830206602 0.7306298482
C -1.8266429522 -0.7078244883 -0.4993466885
C -0.3621859954 -0.4431847155 -0.2513005773
C 0.5393325107 -1.492164402 -0.1438059786
C 1.8841111247 -1.2678031879 0.08975912
C 2.3495270742 0.0292623353 0.2183486469
C 1.4710652003 1.089866215 0.1182394438
C 0.1186327739 0.8624045741 -0.1105131069
O -0.6950320979 1.9517285963 -0.191583049
H -2.0810875708 -0.0750967194 1.5710978089
H -3.2655192373 -1.2567788916 1.0431484396
H -3.4144634151 0.4120846619 0.5241272313
H -2.1641434261 -0.1291395519 -1.3655940004
H -1.9421632006 -1.7592301141 -0.7635774501
H 0.1763107531 -2.5050204022 -0.2470670824
H 2.5645458078 -2.1019884474 0.1691138539
H 3.397417199 0.2171435631 0.3976984625
H 1.8077772 2.1099864081 0.2154709357
H -1.606570598 1.6636150033 -0.3147195908
*
