! r2scan-3c def2/J RI DEFGRID2 scfconv6 printgap
%output
    printlevel normal
end
* xyz 0 1
C -3.3616342112 -0.1237175011 -0.1120603116
C -2.1749117936 0.8042406619 0.1135912046
C -0.8165689306 0.1558440706 0.0305719137
C -0.6308877119 -1.21029176 -0.135935459
C 0.6463825463 -1.7400487463 -0.2005058096
C 1.7566638047 -0.9238406765 -0.0997204533
C 1.583186912 0.4446961043 0.0688307327
C 0.301633862 0.9733529644 0.1320598634
O 2.6387652142 1.3003722914 0.1745116626
H -3.3027365354 -0.5960306128 -1.0899687498
H -4.2871222625 0.4463204085 -0.0648044832
H -3.4020304761 -0.8971477483 0.6513941394
H -2.2693040223 1.269496469 1.0997535985
H -2.2101153844 1.6127403969 -0.6223727295
H -1.4764172579 -1.8734955307 -0.2168827456
H 0.7791699053 -2.8041424923 -0.3312521508
H 2.7537536695 -1.3415515746 -0.1513604559
H 0.192263134 2.0392644265 0.2623882846
H 3.4642532789 0.804948645 0.1140357279
*
