! pbe def2-sv(p) def2/J RI DEFGRID1 loosescf d4 GCP(DFT/SV(P)) printgap
%output
    printlevel normal
end
* xyz 0 1
C -2.8848625015 -0.0756470924 -0.0072510294
C -1.390518696 0.0029271357 0.002887161
C -0.7128476703 1.2168596171 0.0034119596
C 0.6698859029 1.2260066068 0.0029808929
C 1.3534607503 0.012811972 0.0013948154
N 0.7107957525 -1.1473399981 0.0032351994
C -0.608767208 -1.1477454389 0.0041220768
C 2.8495956447 -0.0409896714 -0.0063625045
H -3.2382547522 -0.7271799426 0.7903369692
H -3.3258223411 0.909933943 0.1221424857
H -3.2332315975 -0.489374935 -0.953450581
H -1.2653581225 2.146892969 0.0047030366
H 1.2165929297 2.1574425879 0.0039721174
H -1.0716459488 -2.1273262095 0.0064950355
H 3.2560356411 0.5264275001 0.8290314419
H 3.1753026437 -1.074224552 0.0661167551
H 3.2369590468 0.3905083011 -0.9284086224
*
