! r2scan-3c def2/J RI DEFGRID2 scfconv6 printgap
%output
    printlevel normal
end
* xyz 0 1
C -2.3393453125 0.1529814221 -1.2586693587
C -1.6950775038 -0.432911278 -0.0004763124
C -2.3376118377 0.1497918969 1.2601189539
C -0.2042552882 -0.1971730029 -0.0007192208
C 0.3208741581 1.0897987219 0.000153507
C 1.68802879 1.2972446371 0.0007390666
C 2.5565957508 0.2191528722 0.0004206735
C 2.0465746699 -1.0668766336 -0.0006875756
C 0.6775576188 -1.270017229 -0.0012548625
H -1.8763719366 -0.2640283208 -2.1504833888
H -2.2228664487 1.2335770013 -1.2856631683
H -3.4023602457 -0.0778600808 -1.2797499518
H -1.8688203244 -1.5150624741 -0.0017776511
H -1.8736954347 -0.2699148457 2.1502161232
H -3.4006950484 -0.0805397007 1.2818936146
H -2.2204351475 1.2301956381 1.2899604613
H -0.3421107984 1.9425991205 0.00048148
H 2.0781937193 2.3050198669 0.0015406509
H 3.6245488282 0.3812437937 0.0010703936
H 2.7159173323 -1.9151535661 -0.0009936379
H 0.2879123941 -2.278796333 -0.0020245657
*
