! pbe def2-sv(p) def2/J RI DEFGRID1 loosescf d4 GCP(DFT/SV(P)) printgap
%output
    printlevel normal
end
* xyz 0 1
C -2.341969479 -0.9510354263 -0.0872807976
C -1.2008590996 -0.1275065641 0.5840166382
H -1.5870171921 0.3424523154 1.49761807
C -0.6499632523 0.9825663424 -0.3326911975
H -0.5809745733 0.6152538384 -1.3639870816
C 0.7608514831 1.3380751634 0.1643287687
H 0.7344011957 1.5224646411 1.2466590863
C 1.6840559546 0.1335581477 -0.0989419768
H 1.9919570723 0.1425325801 -1.1573650669
C 0.8951804347 -1.170974636 0.1297256662
H 1.5558416711 -1.8934294312 0.6344191743
O -0.1658040911 -0.9919920149 1.0336240857
O 0.4695519739 -1.6341015635 -1.1095126981
O 2.8048873337 0.1431872387 0.7421595715
O 1.2566678568 2.5224981099 -0.403423398
O -1.5039493822 2.0917015373 -0.3874889267
O -2.0430204413 -2.3250585821 -0.1279344404
H -2.4779192914 -0.638495841 -1.1240006159
H -3.2816924121 -0.783581338 0.4528358038
H -0.3048170227 -2.2137364058 -0.9763055011
H 3.2077104933 1.0193065673 0.69105976
H 1.0922667151 2.5087962812 -1.3540216607
H -1.407892599 2.608323452 0.4219377884
H -1.7705313328 -2.5932359031 0.7605136815
*
