! pbe def2-sv(p) def2/J RI DEFGRID1 loosescf d4 GCP(DFT/SV(P)) printgap
%output
    printlevel normal
end
* xyz 0 1
C -0.1398075351 -1.354316966 4.254e-07
C 1.2271327543 -1.1954357471 -5.3387e-06
C 1.7802185676 0.0864977046 -1.3135e-06
C 0.9437578556 1.2020492254 1.18e-08
C -0.4234162363 1.036823602 -5.874e-07
C -0.9844685453 -0.2419404163 6.1105e-06
C -2.4376079835 -0.402884457 1.99323e-05
O -3.2423643534 0.4957471702 -1.1556e-05
O 3.1270249893 0.1971540154 3.63e-07
H -0.5661218344 -2.3469276816 -5.8235e-06
H 1.8938555772 -2.0428989076 -1.31987e-05
H 1.3751751467 2.1944526087 3.9767e-06
H -1.08548506 1.8895579654 5.985e-06
H -2.7678938747 -1.4617547625 -5.0085e-05
H 3.3888172994 1.1266765437 7.5389e-06
*
