! pbe def2-sv(p) def2/J RI DEFGRID1 loosescf d4 GCP(DFT/SV(P)) printgap
%output
    printlevel normal
end
* xyz 0 1
C 3.7136044952 -0.1519863668 0.0790985049
C 2.2250922533 -0.1751069157 -0.0286427939
C 1.4693031263 0.9026081612 0.2026252669
C 0.0105389068 0.9424768924 0.0678449351
O -0.6102246802 1.9565548498 0.3112107234
C -0.6288798158 -0.3383346432 -0.4509647327
H -0.5008234243 -0.2965732928 -1.5428996376
C 0.155688521 -1.5487633087 0.0601439504
C 1.6021026544 -1.4808234991 -0.4153579285
C -2.1401048981 -0.458693797 -0.1694607232
C -2.4742991619 -0.2643734536 1.3079282129
C -2.9364268935 0.5258509084 -1.0244102594
H 4.038188335 -0.8006220393 0.8929742094
H 4.0820813512 0.852943268 0.2653541782
H 4.1612370362 -0.5311489182 -0.8391056559
H 1.9206158135 1.8403766042 0.4974076037
H 0.1399245075 -1.5616348169 1.1518012426
H -0.3127094925 -2.4691448794 -0.2953039634
H 2.1825112955 -2.3084335429 -0.001005998
H 1.6356520927 -1.575190685 -1.5069392868
H -2.4359863946 -1.4767303287 -0.4569498095
H -2.2128628664 0.7415180273 1.6232671841
H -1.9399381365 -0.9783342517 1.9305493378
H -3.5407320526 -0.4072156805 1.4675243056
H -4.0021647062 0.4002651685 -0.8466707518
H -2.7444642805 0.361719323 -2.0833512763
H -2.6603934647 1.5454093452 -0.7733248502
*
