! pbe def2-sv(p) def2/J RI DEFGRID1 loosescf d4 GCP(DFT/SV(P)) printgap
%output
    printlevel normal
end
* xyz 0 1
C -4.2134942828 -0.3291996844 0.098281857
C -2.7308585656 -0.1215524629 0.0363532288
C -2.0105314399 0.2438505149 1.1661035301
C -0.6442183607 0.4500657646 1.1009394925
C 0.0296926213 0.2915285495 -0.1032504978
C -0.6857113808 -0.0611104432 -1.2409516792
C -2.0499646544 -0.2700407481 -1.1666878162
C 1.4958017437 0.5907029026 -0.1974376126
O 1.8974492479 1.6794085646 -0.5653036307
N 2.3333685875 -0.4136755814 0.1540005728
C 3.7604968309 -0.2008062864 0.1091399017
C 1.9149714439 -1.728523542 0.5630959556
H -4.5054833358 -1.2022978712 -0.4820406686
H -4.5468476258 -0.4596432575 1.1248286315
H -4.727833263 0.5363242958 -0.3199844457
H -2.5241355137 0.3707601927 2.1085281177
H -0.0964135387 0.7386858512 1.9863822636
H -0.16857932 -0.1710301792 -2.182923009
H -2.5974132657 -0.5489027365 -2.0557888614
H 3.9374722269 0.8235814736 -0.2128485837
H 4.2276060352 -0.8911210753 -0.5974249044
H 4.1987216387 -0.3544701809 1.0980783705
H 2.2522307058 -1.9324535442 1.5838299492
H 2.3512485763 -2.4819311513 -0.0994338229
H 0.8316533072 -1.8109609487 0.52565113
*
