! r2scan-3c def2/J RI DEFGRID2 scfconv6 printgap
%output
    printlevel normal
end
* xyz 0 1
C -1.7259197141 0.6539326643 0.5015904529
C -0.8324213649 0.1858733343 -0.6394084942
N 0.494070018 -0.1819863965 -0.102081588
O 0.8473228413 -1.3280152965 -0.2311957243
O 1.1296443389 0.691771501 0.4338463617
H -1.9115429748 -0.157707141 1.2013344679
H -1.2488385316 1.474538481 1.0324122608
H -2.6780248216 0.9972630906 0.1075263675
H -0.6810382665 0.997864086 -1.3543581667
H -1.2415877747 -0.6910258918 -1.1428132697
*
