! pbe def2-sv(p) def2/J RI DEFGRID1 loosescf d4 GCP(DFT/SV(P)) printgap
%output
    printlevel normal
end
* xyz 0 1
C -2.3271443585 -0.8635642385 -0.5972619324
C -1.0530798648 -0.5722972977 0.2084680661
H -1.1795163265 -0.9402228605 1.2429750433
C -0.7480913499 0.9479500403 0.2938894558
H -1.5801482776 1.4954156263 -0.1637590965
C 0.5473565373 1.2542607698 -0.4797257281
H 0.8055916033 2.3082962799 -0.3334809899
C 1.6992607474 0.3929451013 0.0826836182
H 2.5278651393 0.4193040455 -0.6370523496
C 1.2389691802 -1.0804050965 0.213301895
H 1.1360479088 -1.323632643 1.2956767361
O -0.0036149747 -1.2981524426 -0.4122870079
O 2.1791677983 -1.8958628022 -0.3915060029
O 2.0911713475 0.9204814828 1.3305165027
O 0.4035332053 1.0673624569 -1.8571745483
O -0.672812036 1.378709749 1.6281528053
O -3.4294577603 -0.1304123803 -0.1475827789
H -2.5224523714 -1.9452261599 -0.5652988673
H -2.1726818837 -0.5703721001 -1.6383025109
H 1.7707336681 -2.749493595 -0.5805251799
H 2.9175419959 0.5076140509 1.6040188019
H 0.2236087693 0.1300632513 -2.0155437442
H 0.2466413809 1.3112200215 1.9251127713
H -3.5301530969 -0.2517871006 0.8037596512
*
