! pbe def2-sv(p) def2/J RI DEFGRID1 loosescf d4 GCP(DFT/SV(P)) printgap
%output
    printlevel normal
end
* xyz 0 1
C -2.9200440497 7.97034e-05 0.0493507913
C -1.4443932483 6.72559e-05 -0.3393919402
C -0.738182641 1.247483994 0.1921140326
C 0.7384366743 1.2475843083 -0.1917889587
C 1.4444669445 -6.97016e-05 0.3394119909
C 0.7382069455 -1.2476000786 -0.1917893175
C -0.7384216986 -1.2474939963 0.1920845473
C 2.9199392803 -5.1616e-05 -0.0499393262
H -3.4200484785 0.8826236832 -0.3437035824
H -3.4203222421 -0.8820349652 -0.3443226462
H -3.0275721261 -0.0002736032 1.1321984342
H -1.3715597935 9.2179e-05 -1.4332626475
H -1.2223219918 2.1429548679 -0.2045204459
H -0.8299477671 1.2740605874 1.2808514797
H 0.8301483184 1.2743820469 -1.2805231719
H 1.2226687849 2.1429254927 0.2050442832
H 1.3721196766 -6.79304e-05 1.4333108262
H 0.829958319 -1.2744362238 -1.2805218341
H 1.222315735 -2.1429969569 0.2050549609
H -1.222674851 -2.1428769771 -0.2046156797
H -0.8301857908 -1.2741106883 1.2808235071
H 3.4203113045 0.8822047953 0.3434195852
H 3.0269009734 0.0001411687 -1.1329119523
H 3.4201121275 -0.8825859146 0.3430613583
*
