! pbe def2-sv(p) def2/J RI DEFGRID1 loosescf d4 GCP(DFT/SV(P)) printgap
%output
    printlevel normal
end
* xyz 0 1
C -2.2970804921 -1.0495240856 -0.2788862277
C -0.922328587 -0.5720526559 0.1848839701
H -0.8490619221 -0.728171034 1.2738517596
C -0.7356027655 0.9355231439 -0.0988593327
H -1.3375968001 1.2290331099 -0.970281431
C 0.744311333 1.2420362244 -0.4335612358
H 0.9227873248 2.2963616409 -0.1934305154
C 1.6335187013 0.3531634275 0.4431078981
H 2.6910027823 0.5315141909 0.2124797065
C 1.3588337858 -1.1304269009 0.0813333585
H 1.4582147407 -1.7334373513 1.0055587286
O 0.0643562442 -1.3392096638 -0.4650335336
O 2.2725939704 -1.5177928574 -0.8855717385
O 1.4354159221 0.5953461551 1.8091646037
O 1.0178762222 1.0892702944 -1.7951041
O -1.1001227317 1.6925040229 1.0337447099
O -3.2572567036 -0.2484549638 0.3772380619
H -2.4193143829 -2.109052444 -0.0233244137
H -2.3649682585 -0.9395012519 -1.3687046725
H 2.0577310768 -2.4125370933 -1.1761061202
H 0.6011147114 1.0771697536 1.9231417036
H 1.1360765212 0.1482272653 -1.9832613663
H -2.0281229958 1.4991693071 1.2228056406
H -4.1371047237 -0.5341809474 0.1109422184
*
