! pbe def2-sv(p) def2/J RI DEFGRID1 loosescf d4 GCP(DFT/SV(P)) printgap
%output
    printlevel normal
end
* xyz 0 1
C -2.1361371645 -1.0057487338 -0.1174231351
C -1.0790882221 -0.3816220408 0.8116835958
H -1.5358864753 -0.356150922 1.8098959944
C -0.7371226489 1.0875300646 0.4596936954
H -1.5950701534 1.522801401 -0.0616241914
C 0.4967364657 1.255097768 -0.449011992
H 0.8517915842 2.2895700931 -0.2997817833
C 1.6198977322 0.3091240342 0.0055277869
H 2.447313013 0.3407548151 -0.7246089126
C 1.0933552554 -1.141082666 0.0699927447
H 1.8741478509 -1.7918843849 0.4940764966
O 0.0459194218 -1.2275553319 1.0007852321
O 0.8073298706 -1.6457072589 -1.1825027557
O 2.0566309023 0.753897333 1.2709867139
O 0.129427843 1.0510426031 -1.7860360057
O -0.5633591751 1.8359437047 1.6339662097
O -1.7954105228 -0.8397604395 -1.4766358273
H -3.0978997754 -0.5210018185 0.0933481251
H -2.2094665354 -2.0720090101 0.1355024366
H -0.0045589736 -1.2106536363 -1.5177270438
H 2.5616217589 0.0515886113 1.6969381915
H 0.9159582306 1.0853373941 -2.3422803059
H 0.2988808743 1.5969027363 2.0067040219
H -2.4631129569 -1.2594446318 -2.0280937588
*
