! r2scan-3c def2/J RI DEFGRID2 scfconv6 printgap
%output
    printlevel normal
end
* xyz 0 1
C -2.6233833786 -1.5443964081 -0.1113692022
C -1.9661172227 -0.1750583148 0.0101066111
C -0.4537070891 -0.1799784115 -0.0112370959
C 0.298219694 -1.3388849062 -0.1331612175
C 1.6821288102 -1.3040790252 -0.1488243519
C 2.3438998446 -0.0946030568 -0.041435852
C 1.6182481477 1.0738454398 0.0809835812
C 0.2295202161 1.0379914962 0.096558578
O -0.4175918765 2.233113792 0.2203864388
H -3.7054911142 -1.4323879883 -0.0852966617
H -2.329078031 -2.1902799601 0.7122700404
H -2.3541455577 -2.0219427017 -1.050315351
H -2.303617616 0.282705901 0.9487021135
H -2.3280013479 0.4509909412 -0.8154342954
H -0.1980772457 -2.2922651061 -0.218132247
H 2.2396234519 -2.2235978972 -0.2450233469
H 3.4227567093 -0.0582376465 -0.0527153475
H 2.1043312335 2.0328263316 0.1666245145
H -1.3713044452 2.0957581542 0.2199722033
*
