! r2scan-3c def2/J RI DEFGRID2 scfconv6 printgap
%output
    printlevel normal
end
* xyz 0 1
C -2.7139851187 0.804168444 -0.1213903352
O -1.2866882012 0.8544953708 -0.1507044963
C -0.6574439981 -0.2771971438 0.0681260485
O -1.1413949521 -1.3467684648 0.2887695229
C 0.885304442 -0.059289371 -0.0003417766
F 1.21673443 1.2183284835 -0.1924568909
F 1.4708192228 -0.4603411665 1.1311753742
F 1.4164090492 -0.7663722963 -1.0026824432
H -3.0566597204 0.4807914613 0.8625200133
H -3.0794482709 0.1040742826 -0.8740170408
H -3.0513192602 1.8142290843 -0.3356428333
*
