! r2scan-3c def2/J RI DEFGRID2 scfconv6 printgap
%output
    printlevel normal
end
* xyz 0 1
C -2.6148449562 1.4527616401 -0.0121639094
O -2.2161100051 0.1060450768 0.0031715347
C -0.8809061688 -0.1807945062 0.0034670808
C -0.5545218033 -1.5376844494 0.0030548683
C 0.7700994578 -1.9228969786 0.0051154675
C 1.7823436465 -0.9812544971 0.0091883944
C 1.46696896 0.3749581981 0.0098022207
C 0.1280412796 0.7695099518 0.0102184026
N 2.465069473 1.3289456825 -0.0606739434
H -2.2723413848 1.9856409681 0.8816302234
H -3.7038908024 1.4388387911 -0.0247344263
H -2.2505143981 1.9713720692 -0.9054056518
H -1.3532398249 -2.260965223 0.001613491
H 1.0197458421 -2.9735784407 0.0063848387
H 2.817988706 -1.2877308894 0.0096782649
H -0.0948151838 1.8258344419 0.0113531004
H 3.3823537075 1.0285348879 0.2268616463
H 2.2182889457 2.2568594359 0.243648639
*
