! r2scan-3c def2/J RI DEFGRID2 scfconv6 printgap
%output
    printlevel normal
end
* xyz 0 1
C -2.4166524671 -1.1142381601 -0.3332724802
C -1.0738180458 -0.6109377387 0.2150468543
H -1.1307102489 -0.5847494967 1.3147396401
C -0.7523913618 0.8057465452 -0.2903027132
H -0.728956995 0.7947182274 -1.3927965423
C 0.6344380851 1.228996147 0.2066965993
H 0.623697416 1.2868975458 1.3079090945
C 1.6631394249 0.1790123199 -0.21156554
H 1.7188633202 0.1459982629 -1.313125484
C 1.2049488824 -1.2036357298 0.2978841236
H 1.2110328149 -1.1908187406 1.4026979752
O -0.0685193067 -1.5149750262 -0.1975238374
O 2.0907235091 -2.1933513177 -0.104093718
O 2.9130957172 0.5256788443 0.3295635393
O 0.9198368525 2.4958087683 -0.3347247292
O -1.7392332611 1.6992764638 0.1601584099
O -3.503897995 -0.4891644543 0.2797516403
H -2.5016287465 -2.1832306246 -0.125006177
H -2.4317699094 -0.9682993437 -1.4235847256
H 1.7653083153 -2.5540890744 -0.9380680429
H 3.4694455477 -0.2638478398 0.3177109709
H 1.8532125307 2.6752922326 -0.1697131846
H -1.39908521 2.5915305464 0.0128113351
H -3.3419096524 0.4653879989 0.2696531566
*
