! pbe def2-sv(p) def2/J RI DEFGRID1 loosescf d4 GCP(DFT/SV(P)) printgap
%output
    printlevel normal
end
* xyz 0 1
C -1.7858648733 -1.0332111687 -0.6584527974
C -1.0293348798 -0.4681346941 0.5581966287
H -1.6752491935 -0.5513022818 1.4432980875
C -0.6982528566 1.0260238971 0.3764835773
H -1.5447914258 1.4840692182 -0.1463886587
C 0.5638209778 1.2301775187 -0.4826212949
H 0.8825753463 2.2794154136 -0.3551396793
C 1.7079743354 0.3453830528 0.0413559653
H 2.5457777239 0.374021769 -0.6757712099
C 1.25542487 -1.1201033911 0.153579316
H 2.0118183444 -1.6850969116 0.7352526389
O 0.0944147969 -1.2758837517 0.9053893373
O 1.1715818871 -1.6323801996 -1.1430671835
O 2.1028162171 0.8564312811 1.2919134655
O 0.248624889 0.9700471429 -1.8217832335
O -0.5823339087 1.6847293394 1.6076772957
O -3.0711641816 -0.4862755078 -0.7779868744
H -1.8336160832 -2.1290564489 -0.5563322284
H -1.2642498006 -0.7729794368 -1.5807777853
H 0.7471414365 -2.497642459 -1.1116785314
H 2.7649350138 0.276110431 1.6851070375
H 1.0538778515 0.7857975419 -2.3179480506
H 0.2779523856 1.4557129709 1.9889183213
H -3.5578167575 -0.6343161346 0.0415559768
*
