! pbe def2-sv(p) def2/J RI DEFGRID1 loosescf d4 GCP(DFT/SV(P)) printgap
%output
    printlevel normal
end
* xyz 0 1
C -2.3153179292 0.1179711774 -0.2713620951
C -0.9484072966 0.4157215501 0.3381992946
C 0.0014454251 -0.7273587718 0.1454306076
C 1.3061846228 -0.6230773454 -0.0542527202
C 2.0690808199 0.6648485654 -0.1233262029
H -2.2220271094 -0.0609125786 -1.340485357
H -2.99210369 0.9562541527 -0.1204116416
H -2.7553684284 -0.7652751291 0.1870037473
H -0.5394843058 1.3226365193 -0.1095034962
H -1.0689895609 0.6009127617 1.411352129
H -0.4517197777 -1.7092747923 0.1871184295
H 1.8910717368 -1.5229494654 -0.1893382683
H 1.7644960392 1.3434750477 0.6709803559
H 1.8910995442 1.1628849357 -1.0774448965
H 3.1365918333 0.4823574226 -0.0326534654
*
