  16
        -23.11319509
 C         -2.7726206656        0.4031085700        0.0002637468
 O         -1.7901732751       -0.6026413444       -0.0002646629
 C         -0.4777224313       -0.2326311979       -0.0000872576
 C         -0.0194831099        1.0795830183       -0.0001270399
 C          1.3431029485        1.3324266599       -0.0000286456
 C          2.2561196790        0.2954446160        0.0000533564
 C          1.7993239176       -1.0138997282        0.0000721117
 C          0.4462704512       -1.2788352480        0.0000592375
 H         -2.7057480781        1.0324761161       -0.8933853125
 H         -2.7047283280        1.0326202177        0.8937806158
 H         -3.7285984467       -0.1184744932        0.0009127488
 H         -0.7081592994        1.9100566304       -0.0002029038
 H          1.6873866213        2.3565638184        0.0001312612
 H          3.3154066871        0.5027741963        0.0001280434
 H          2.5034624230       -1.8327598936        0.0002359289
 H          0.0723842395       -2.2906358149        0.0001518519
  16
        -23.10872384
 C         -2.7414483356       -0.8247575437        0.0155390314
 O         -1.8550747359        0.2714212254       -0.0124435499
 C         -0.5020122067        0.1155503795       -0.0055225587
 C          0.2158381086        1.3151717625       -0.0074462793
 C          1.5938847514        1.3117411413       -0.0024253936
 C          2.2896784822        0.1124707244        0.0048375807
 C          1.5851710004       -1.0756714894        0.0056401403
 C          0.1994736012       -1.0844266131        0.0000961006
 H         -3.3685299874       -0.7352859846        0.9066144695
 H         -2.2396895966       -1.7896715761        0.0347193987
 H         -3.3765935567       -0.7741307417       -0.8726625264
 H         -0.3413999216        2.2388617147       -0.0131039736
 H          2.1295596801        2.2495011206       -0.0041434312
 H          3.3688724995        0.1064990328        0.0090071228
 H          2.1138603711       -2.0178816876        0.0099473596
 H         -0.3061097778       -2.0381736072       -0.0005818416
  16
        -23.10597240
 C         -2.6491218168       -0.1564424778       -0.6383130881
 O         -1.8372275533       -0.2323414714        0.5116210807
 C         -0.4853633387       -0.0766953462        0.2530390927
 C          0.0892329460        1.1872012425        0.2967872967
 C          1.4479207486        1.3336140680        0.0816534613
 C          2.2349409527        0.2256255433       -0.1829206610
 C          1.6614031849       -1.0337679095       -0.2279369218
 C          0.3034621754       -1.1884624785       -0.0138900894
 H         -2.5543552489        0.8183499233       -1.1311089358
 H         -3.6740879778       -0.2932889343       -0.2981275968
 H         -2.3952007955       -0.9420092801       -1.3597342134
 H         -0.5337501793        2.0429788610        0.5106199108
 H          1.8934536648        2.3168244724        0.1211675651
 H          3.2951603820        0.3432213410       -0.3510703416
 H          2.2737473161       -1.9002857605       -0.4302906888
 H         -0.1541455818       -2.1662741666       -0.0398384895
