! pbe def2-sv(p) def2/J RI DEFGRID1 loosescf d4 GCP(DFT/SV(P)) printgap
%output
    printlevel normal
end
* xyz 0 1
C -1.744333762 1.4526965626 -0.1571128285
C -1.630822345 0.0083531123 0.3206839211
C -2.9411367173 -0.7427542979 0.0860180289
C -0.5120043683 -0.7245765979 -0.4063220344
Br 1.2488999897 -0.0022860791 0.0357306707
H -0.8133659996 1.9900897038 0.009913457
H -1.9770077594 1.4845811364 -1.2202753165
H -2.5350822051 1.9674167705 0.3829799206
H -1.4108658459 0.0063554631 1.3943606751
H -3.1776046551 -0.7737108718 -0.9758707656
H -3.7552227463 -0.2421542675 0.6038016991
H -2.8770945285 -1.7640822736 0.4553886195
H -0.6142834477 -0.6350329711 -1.4876487439
H -0.4775591273 -1.7773751755 -0.1275314728
*
