! pbe def2-sv(p) def2/J RI DEFGRID1 loosescf d4 GCP(DFT/SV(P)) printgap
%output
    printlevel normal
end
* xyz 0 1
C -1.5241968845 0.6500105032 -0.0660559068
C -1.2503626875 -0.7967212925 -0.4646485796
C -0.0869977004 -1.1795283004 0.4462043336
C 0.7986506743 0.0812876901 0.4926774887
C -0.1251924872 1.2479442795 0.09556705
O 1.8587512236 0.0401991061 -0.4409714495
H -2.056302762 0.6748324603 0.8867986661
H -2.1175379168 1.1860177456 -0.8048362239
H -2.1159171432 -1.4448361983 -0.3345103653
H -0.9318522672 -0.8391737284 -1.5067621632
H -0.4557581869 -1.405007973 1.4478982723
H 0.4667516938 -2.0439482477 0.0789479259
H 1.214816874 0.2220647788 1.5020042951
H -0.1003021364 2.0545258894 0.8254593283
H 0.2394175889 1.6336537638 -0.8562660025
H 2.4261393462 -0.711914638 -0.2418046826
*
