! r2scan-3c def2/J RI DEFGRID2 scfconv6 printgap
%output
    printlevel normal
end
* xyz 0 1
C -2.3612020457 0.1186091928 0.1654869457
C -0.9285031007 0.4081997009 -0.2673598475
C 0.0017250263 -0.7174994119 0.0743839827
C 1.3200900201 -0.6133213217 0.143721677
C 2.083490579 0.6508394584 -0.1043993733
H -2.735703833 -0.7772412662 -0.3253460384
H -3.0147087149 0.9491704717 -0.0925708678
H -2.4089188199 -0.0337877183 1.2416797093
H -0.90532285 0.5761054744 -1.3500609046
H -0.5812855902 1.328628468 0.2084917074
H -0.469441333 -1.6724598452 0.2630560795
H 1.9092436342 -1.4820066344 0.403601252
H 1.9708896913 1.3349102658 0.7379936392
H 1.7151850491 1.1579865969 -0.9945175625
H 3.1424684079 0.4440275281 -0.2333437631
*
