! pbe def2-sv(p) def2/J RI DEFGRID1 loosescf d4 GCP(DFT/SV(P)) printgap
%output
    printlevel normal
end
* xyz 0 1
C -1.8166914165 -0.9715619765 -0.8263630407
C -1.3078272587 -0.1704291038 0.3905889915
H -2.128499442 -0.0869934653 1.1123816208
C -0.8394050883 1.2409557983 -0.0258735187
H -1.0681263046 1.4126576256 -1.0837757871
C 0.6795689704 1.3658449309 0.1651283912
H 0.8998491408 1.464380027 1.2430218726
C 1.3852850481 0.1087580446 -0.3532492942
H 1.1204780323 -0.0471427693 -1.4097417952
C 0.9137168865 -1.0974699213 0.4718130704
H 1.6422265248 -1.2529953482 1.2788126733
O -0.3038973031 -0.8603221969 1.128748538
O 0.838730923 -2.2225518952 -0.3574352732
O 2.773716342 0.2156666963 -0.2088546554
O 1.1961151262 2.4747725162 -0.530670809
O -1.5095334852 2.2728359192 0.6572833197
O -2.1614190542 -2.282374989 -0.4877356906
H -1.0559124198 -0.9633481624 -1.6180911648
H -2.7254656435 -0.4939950477 -1.1985604265
H 0.9661923438 -3.0235694929 0.1624200191
H 3.0301201518 1.0724412728 -0.5757204215
H 0.5981712936 3.2186139976 -0.3874276105
H -1.4228245694 2.1295748168 1.6079136238
H -1.3482493575 -2.7222798049 -0.2065612636
*
