! r2scan-3c def2/J RI DEFGRID2 scfconv6 printgap
%output
    printlevel normal
end
* xyz 0 1
C -1.8940428021 0.0881976171 0.329988966
C -0.7063240179 0.6715655269 -0.4202547001
N 0.5307571375 -0.0561722402 -0.0627445062
O 0.5098890308 -1.2583780198 -0.1521527834
O 1.4787238345 0.6044873827 0.2841007722
H -1.9580861 -0.9816677131 0.1465426292
H -1.7921643732 0.2549068242 1.3997676796
H -2.8123156673 0.5585902973 -0.009054972
H -0.5462210523 1.7250412474 -0.1864785887
H -0.8461317469 0.5496185326 -1.4976796593
*
