! pbe def2-sv(p) def2/J RI DEFGRID1 loosescf d4 GCP(DFT/SV(P)) printgap
%output
    printlevel normal
end
* xyz 0 1
C -2.4674569297 -1.1527162534 0.1779033025
C -1.0580066772 -0.6089151781 0.5201224374
H -0.9425007165 -0.5303533466 1.6131436966
C -0.8078030715 0.7825107423 -0.0805073137
H -0.9257519209 0.7253501179 -1.1735489041
C 0.6266849415 1.222161035 0.2245796864
H 0.7550864515 1.3168907291 1.3163826628
C 1.6020813131 0.162218796 -0.2850535339
H 1.5168734398 0.0823060091 -1.3801951937
C 1.2187557821 -1.1984101803 0.3195693937
H 1.3558500845 -1.1463500574 1.4229736188
O -0.1086484861 -1.5333855678 0.0238508133
O 2.047372209 -2.1729900834 -0.2216998607
O 2.9039963655 0.5406740186 0.0837509592
O 0.8370900181 2.4708347766 -0.3878515097
O -1.735557787 1.6905933314 0.4644976682
O -3.1865888757 -0.3746203177 -0.730036809
H -3.0344812227 -1.2768906301 1.1102404373
H -2.3384401992 -2.1312072086 -0.2897869123
H 1.5318534656 -2.9844653215 -0.295612579
H 3.4871049465 -0.2073870368 -0.0928427746
H 1.7856225667 2.6452684551 -0.3633012788
H -1.4192641023 2.5759508237 0.2423012543
H -3.2438067603 0.5233185247 -0.3731244953
*
