! pbe def2-sv(p) def2/J RI DEFGRID1 loosescf d4 GCP(DFT/SV(P)) printgap
%output
    printlevel normal
end
* xyz 0 1
C -2.3013584639 -1.0488671073 -0.2786654521
C -0.9203112462 -0.5620510669 0.1874146734
H -0.8182486797 -0.7678480438 1.2652255184
C -0.7453648265 0.9616140838 -0.0255037243
H -1.3916872089 1.3119975422 -0.847531139
C 0.7118380195 1.2416724329 -0.4497690983
H 0.9323091583 2.3003320031 -0.2808126295
C 1.6521185538 0.3685253657 0.3990297999
H 2.6948969494 0.5595715863 0.1125436864
C 1.3591114898 -1.1286366103 0.0778766222
H 1.3956329982 -1.7072343648 1.012614161
O 0.0696932188 -1.2726883005 -0.5215570699
O 2.2866602396 -1.6882468574 -0.7696575089
O 1.5378850814 0.6434215216 1.7683061467
O 0.8856616392 1.0042105442 -1.8217658044
O -1.0263233851 1.6766429186 1.1570366954
O -3.3317130378 -0.2719478842 0.2864100539
H -2.4525837553 -2.0747698136 0.0622179219
H -2.3346859636 -1.0387423206 -1.3730939258
H 2.3321230103 -1.1737083853 -1.5870287455
H 0.69760389 1.0984502918 1.9329601338
H 0.5534552596 0.1116108751 -2.0051761707
H -1.9057479349 1.4244649972 1.4690932707
H -3.4924175246 0.5040885046 -0.2609714025
*
