! pbe def2-sv(p) def2/J RI DEFGRID1 loosescf d4 GCP(DFT/SV(P)) printgap
%output
    printlevel normal
end
* xyz 0 1
C -2.3433202069 -1.0487700317 0.3483116331
C -1.0840668958 -0.2778575421 0.805487807
H -1.3282764796 0.1649415957 1.7841699331
C -0.6935643787 0.8605749791 -0.1464099394
H -0.7105851528 0.5341407834 -1.192173395
C 0.7360343061 1.3027131904 0.1969626516
H 0.7955734233 1.503433668 1.2821919403
C 1.7080388617 0.1603115407 -0.1370468202
H 1.9578269513 0.2259009159 -1.2064081796
C 1.0143723413 -1.1983300603 0.0850604319
H 1.7520927792 -1.8975691421 0.507696017
O 0.0053286449 -1.154558417 1.0551990025
O 0.5447339979 -1.6330802524 -1.1530204806
O 2.8644697941 0.2095621158 0.6514597163
O 1.0980072064 2.4585520971 -0.5167375725
O -1.5893713408 1.9441305646 -0.0818876547
O -2.2001285734 -1.7509046134 -0.8570861397
H -3.1749914411 -0.3337389325 0.2925514003
H -2.5699312977 -1.8056797359 1.1020227818
H -0.145490348 -2.3004779237 -1.0053147528
H 3.2799623477 1.0692743078 0.5122328942
H 0.2850689379 2.9350274466 -0.7370759402
H -1.6397603077 2.26010324 0.8294376495
H -2.0840299508 -1.1257398632 -1.5824034479
*
