! pbe def2-sv(p) def2/J RI DEFGRID1 loosescf d4 GCP(DFT/SV(P)) printgap
%output
    printlevel normal
end
* xyz 0 1
C 1.5886633118 1.6247348991 0.7909840364
C 0.2944150529 0.8773087285 1.1672758965
H -0.0439843207 1.2679247237 2.1297310484
C 0.3283774807 -0.6783343355 1.2518514645
H -0.0404297612 -0.9900081645 2.2324562057
C 1.6634712434 -1.404029028 1.040287228
O 2.4537362971 -0.8414664963 0.031144103
S 3.6848808745 0.1358838535 0.6203542064
O 4.4032161078 -0.5846208995 1.618250539
O 2.69523526 1.1529036426 1.5012279867
C -0.7388883294 -1.0924666088 0.2016676086
C -0.2222558412 -0.6965763211 -1.1666722515
C -0.279474139 0.6412185992 -1.2320270824
C -0.8087517864 1.1331779011 0.1026377941
C -1.8120673345 0.0004620966 0.410189687
Cl -3.1396242066 -0.0906613972 -0.7529138527
Cl -2.4948138117 0.053231389 2.0303128408
Cl -1.4475105067 2.7626881929 0.1038185851
Cl 0.1828774278 1.6670028165 -2.4974595873
Cl 0.3436735402 -1.7992597723 -2.3066551176
Cl -1.2864709036 -2.7484290353 0.3472356338
H 1.4551359967 2.6843262537 1.0312046834
H 1.7769272491 1.5333636897 -0.2837363642
H 2.232028087 -1.4013378254 1.9786982826
H 1.4555108473 -2.4450870162 0.7717898417
*
