! pbe def2-sv(p) def2/J RI DEFGRID1 loosescf d4 GCP(DFT/SV(P)) printgap
%output
    printlevel normal
end
* xyz 0 1
C 1.8281230134 -1.1221238933 -8.08109e-05
C 2.3153063935 0.1771441357 9.9619e-05
C 1.4456823067 1.2517644665 0.0001044267
C 0.0696102594 1.0478967643 -6.8669e-06
C -0.4306926354 -0.2650494759 -3.83252e-05
C 0.4659271949 -1.3344945227 -0.0001312518
C -1.8738747909 -0.5199523294 0.0002155645
O -2.3807432287 -1.6147039486 -5.45832e-05
O -0.8001095543 2.0849186603 -0.0001050553
H 2.5116237284 -1.9568075216 -0.0001485924
H 3.3800880378 0.3566030296 0.0002470536
H 1.8320537223 2.2629756191 0.000204084
H 0.0520965538 -2.3316758056 -0.000210545
H -2.4887168679 0.3973247431 0.000693539
H -0.3176698131 2.9215828743 -0.0001862061
*
