  15
        -15.77257958
 C          1.1965863349        1.2559661519       -0.0380130807
 C          0.3996196971        0.0000116200        0.3205147894
 C          1.1953715938       -1.2566303346       -0.0382750977
 C         -0.9091843422        0.0005720294       -0.4107726879
 C         -2.0945003037        0.0001787748        0.1680821068
 H          0.6351604601        2.1501422761        0.2238460702
 H          1.4052828173        1.2806621743       -1.1056833789
 H          2.1428713830        1.2712054830        0.4983517079
 H          0.2057082854       -0.0000293294        1.3983671873
 H          1.4039331668       -1.2814356987       -1.1059722769
 H          2.1416881854       -1.2726347739        0.4979900316
 H          0.6332158999       -2.1503471345        0.2236240867
 H         -0.8291959200        0.0014305849       -1.4906245952
 H         -3.0100749722        0.0005209547       -0.3992114973
 H         -2.2009403148       -0.0006852679        1.2410080158
  15
        -15.77093071
 C          1.2790132570        1.2130365671       -0.2449756307
 C          0.4818745164        0.0970390480        0.4389596526
 C          0.9108266577       -1.2652714244       -0.0959404918
 C         -0.9859283060        0.3757117967        0.2796939927
 C         -1.8832236399       -0.3931983343       -0.3070812351
 H          1.0052585196        2.1857502951        0.1577766457
 H          1.0777089850        1.2145386165       -1.3142527480
 H          2.3461068965        1.0655323175       -0.0941741186
 H          0.7055223350        0.1333580901        1.5138963767
 H          0.3639556618       -2.0635082804        0.4000809885
 H          0.7321175591       -1.3285360417       -1.1668240114
 H          1.9733704077       -1.4162825745        0.0823694844
 H         -1.2946650096        1.3276383964        0.6960125734
 H         -2.9165560200       -0.0964148184       -0.3764034441
 H         -1.6399847377       -1.3476165606       -0.7404826112
  15
        -15.76958524
 C          1.0515697089        1.2529659549       -0.2312329781
 C          0.5211205898        0.0076484458        0.4845597317
 C          1.0162974779       -1.2608828455       -0.2130295081
 C         -0.9847800715        0.0449772695        0.5526531151
 C         -1.7884870486       -0.0422174230       -0.4907847684
 H          2.1393836769        1.2476847340       -0.2442846868
 H          0.7154232487        2.1552548599        0.2750496013
 H          0.6926886175        1.2821827820       -1.2570229098
 H          0.9130478887        0.0087319221        1.5073949739
 H          0.6911596980       -1.2813670315       -1.2497356182
 H          2.1033362114       -1.3013974257       -0.1929104193
 H          0.6274257815       -2.1455378197        0.2865416915
 H         -1.4096636256        0.1650368503        1.5408006040
 H         -2.8596413288       -0.0018429057       -0.3879619472
 H         -1.4171296132       -0.1584356435       -1.4953640247
  15
        -15.76579347
 C          1.0082129860        1.2784372712       -0.1960978553
 C          0.5191749335       -0.0151196386        0.4812521418
 C          1.0660525020       -1.2517382266       -0.2421573721
 C         -0.9841344175       -0.1149951740        0.5389513810
 C         -1.7944072117        0.0983478369       -0.4810227690
 H          1.5514805436        1.9023170826        0.5092443291
 H          0.1737837736        1.8595727441       -0.5784357213
 H          1.6729384009        1.0548550746       -1.0266921874
 H          0.8982993517       -0.0389715014        1.5078376355
 H          0.7181098829       -1.2691534016       -1.2722661909
 H          2.1538925780       -1.2439171896       -0.2382464221
 H          0.7257169569       -2.1611018680        0.2491046188
 H         -1.3963854492       -0.4259964062        1.4900550010
 H         -2.8617806493       -0.0130370081       -0.3925320886
 H         -1.4302307978        0.3958262825       -1.4507840247
