! pbe def2-sv(p) def2/J RI DEFGRID1 loosescf d4 GCP(DFT/SV(P)) printgap
%output
    printlevel normal
end
* xyz 0 1
C -2.1052400754 -1.3229512725 0.0269820741
C -0.8644692323 -0.5787226926 0.5430224375
H -1.0444201868 -0.2902205333 1.5906422289
C -0.6337709928 0.7081740462 -0.2631977923
H -0.7662372541 0.4676871939 -1.3331144618
C 0.7837982877 1.2950482201 -0.0783088097
H 0.7260214473 2.0819232084 0.6852606867
C 1.8270170821 0.250171909 0.3793899741
H 2.7942101807 0.5463676532 -0.0393040149
C 1.3947898673 -1.1141135549 -0.1675033338
H 2.1054476418 -1.9034122047 0.1115986009
O 0.2156334713 -1.5038891983 0.509022832
O 1.2695120792 -1.1151216814 -1.5493490751
O 1.9759603379 0.2044690674 1.7686863265
O 1.2484666377 1.8153740985 -1.3083305191
O -1.5470947789 1.7073619424 0.1142400803
O -3.2415059531 -0.4946128669 0.1748587454
H -2.2091644758 -2.2475188456 0.60619385
H -1.944642023 -1.5876487855 -1.026485547
H 1.2636229855 -0.2035262005 -1.8791001965
H 1.3018995723 -0.3883024533 2.1272003385
H 0.6857443538 2.5582569485 -1.5554626951
H -2.4254227823 1.3022753309 0.1662313492
H -4.0246313795 -0.990536708 -0.0843651622
*
