! pbe def2-sv(p) def2/J RI DEFGRID1 loosescf d4 GCP(DFT/SV(P)) printgap
%output
    printlevel normal
end
* xyz 0 1
C -3.498103122 0.3728315999 -0.1830617131
C -2.1859997115 -0.1130254639 0.4276294181
H -2.422865095 -0.7000305183 1.3204227289
C -1.283528426 1.0564010346 0.8446337298
C -0.3608336054 1.4867959965 -0.2927739133
C 0.6446261246 0.3748281441 -0.6568543029
H 0.7426737886 0.3497999762 -1.7510902668
C 0.0481293952 -0.9756066982 -0.304144893
O 0.6645120385 -1.9215217281 0.1163504045
C -1.4393085861 -1.0233270549 -0.5668875431
C 2.0635005314 0.6275107239 -0.1060165537
C 2.1426141029 0.5040665002 1.413339621
C 3.0759500093 -0.3091081382 -0.7645912215
H -3.3100522024 1.022217185 -1.0354644967
H -4.0965409961 -0.4707529011 -0.5196560037
H -4.0757071751 0.9299845148 0.5512465198
H -1.8999076387 1.9002868343 1.1602979532
H -0.6752374636 0.7512849688 1.6970794362
H -0.9678778926 1.746669669 -1.1621769911
H 0.1857831758 2.3856832787 -0.0028244158
H -1.6196024582 -0.6693052092 -1.5834541337
H -1.7942985717 -2.0509797815 -0.4855979781
H 2.3295253625 1.6571963012 -0.3807416482
H 1.8400668389 -0.4907299539 1.7278947155
H 1.5099083847 1.2414175895 1.9016494331
H 3.1661219102 0.6691870059 1.7430337935
H 4.0810130845 -0.0740518569 -0.4215727215
H 3.0523110041 -0.2046825795 -1.8479525877
H 2.8557356783 -1.3409671427 -0.509002058
*
