! pbe def2-sv(p) def2/J RI DEFGRID1 loosescf d4 GCP(DFT/SV(P)) printgap
%output
    printlevel normal
end
* xyz 0 1
C 2.2772760365 0.1355337644 0.423105561
N 1.081557797 -0.0880276828 -0.3566829303
C 0.302192605 -1.2020723614 0.167944283
C -1.1324989144 -1.1195444407 -0.3353806189
O -1.8066834435 0.0211321356 0.1630947185
C -0.9494019376 1.1254925686 0.3880241721
C 0.2596853097 1.1033139509 -0.5463523481
H 2.8753034589 0.9103276195 -0.053696512
H 2.8567462343 -0.7871088816 0.4394441553
H 2.071403423 0.4334448248 1.4638386548
H 0.7619365295 -2.1352402022 -0.1721045702
H 0.2896558628 -1.2100596532 1.2718262025
H -1.1307608434 -1.1069651645 -1.4347472045
H -1.7092281487 -1.9844894417 0.0024181112
H -1.5507993775 2.0239860299 0.2260774102
H -0.6073231175 1.1232696325 1.4350190162
H -0.0959297555 1.1140949771 -1.5833782612
H 0.8638876044 1.9974723905 -0.3868690246
*
