! pbe def2-sv(p) def2/J RI DEFGRID1 loosescf d4 GCP(DFT/SV(P)) printgap
%output
    printlevel normal
end
* xyz 0 1
C -1.4241813606 -1.2090770797 0.0045974027
C -0.0515018881 -1.2097744711 0.0004642377
C 0.6420604664 1.48562e-05 -0.0004181566
C -0.0515159097 1.2097960163 0.0013262272
C -1.4241975189 1.2090448622 0.0054611025
C -2.137056215 -2.57353e-05 0.007104729
N -3.4942683781 2.70244e-05 -0.0285096015
N 2.0665294317 3.3732e-06 -0.0012371869
O 2.6375732258 1.0754315262 -0.0021519568
O 2.6375547134 -1.0754361564 -0.0002616733
H -1.9687647301 -2.1413380905 0.005235673
H 0.508127524 -2.1323663223 -0.000100418
H 0.5080511636 2.1324233332 0.0012972757
H -1.9688118976 2.1412872532 0.0069058319
H -3.9939042254 0.8601139635 0.1092434357
H -3.9938668222 -0.8602122446 0.1082353195
*
