! pbe def2-sv(p) def2/J RI DEFGRID1 loosescf d4 GCP(DFT/SV(P)) printgap
%output
    printlevel normal
end
* xyz 0 1
C -2.497370008 -0.434679138 -0.2946761735
C -1.1005614453 -0.184407215 0.2814544872
H -1.1053078527 -0.4282286164 1.3561254146
C -0.6444580511 1.2846624436 0.1088976098
H -1.3290492443 1.8117351435 -0.5641607015
C 0.7686024165 1.3188155037 -0.5228717075
H 1.1610712801 2.3377017555 -0.4190921744
C 1.6828739 0.3344833851 0.2367489599
H 2.6579734424 0.281697777 -0.2636193572
C 1.07485641 -1.082420065 0.1820620081
H 1.0159012421 -1.4659465036 1.2218472968
O -0.2189822041 -1.0849853081 -0.379794097
O 1.8835459341 -1.8729667303 -0.612104905
O 1.8190770629 0.698184637 1.595117542
O 0.7511326458 1.0491159501 -1.8935592795
O -0.6836013788 1.9836902929 1.3214289679
O -2.9346882507 -1.7440163482 -0.0595742969
H -2.4776638554 -0.2159118563 -1.3719988769
H -3.2119035918 0.228427277 0.1951896844
H 1.4552955711 -2.7268758838 -0.7482198151
H 2.3951084167 1.4688286193 1.6553415073
H 0.4630956314 0.133550274 -2.0160899727
H -0.0163659984 1.5967160932 1.9098913163
H -2.2610701096 -2.3430577622 -0.4031059493
*
