! r2scan-3c def2/J RI DEFGRID2 scfconv6 printgap
%output
    printlevel normal
end
* xyz 0 1
C -3.3105437361 0.7151637644 0.383726735
C -2.4752898948 -0.3945009242 -0.2445607926
C -0.9829301931 -0.2143871589 -0.1313895855
C -0.1559851531 -1.3220111165 -0.3012997496
C 1.216919729 -1.2165308707 -0.2269292462
C 1.803517502 0.0192280305 0.0260429069
C 0.9921432901 1.1313034428 0.1968196696
C -0.3849165655 1.0119982116 0.1160850369
O 3.1629326172 0.0909532683 0.0980430266
H -3.0203774683 0.8723689953 1.4202052413
H -4.3634691706 0.4426402768 0.3595624179
H -3.1945444698 1.6502794877 -0.1586897992
H -2.734023878 -0.4772694761 -1.3056783072
H -2.7406451088 -1.3468680493 0.2223343265
H -0.6000598568 -2.2878845337 -0.4964321149
H 1.8533049664 -2.0771081419 -0.3587098573
H 1.4389542442 2.0976866586 0.394208218
H -0.9866972823 1.8966301173 0.2517105325
H 3.430070256 1.0001455935 0.2781241896
*
