! pbe def2-sv(p) def2/J RI DEFGRID1 loosescf d4 GCP(DFT/SV(P)) printgap
%output
    printlevel normal
end
* xyz 0 1
C -2.5650130307 -0.5845054786 -0.271694968
C -1.3766757494 0.2742758283 0.1169701364
O -0.1792050288 -0.44674032 -0.1828355157
C 0.9743838333 0.1761289598 0.073316955
O 1.0440966301 1.2888302822 0.5241811182
C 2.15117273 -0.7028007285 -0.2616951364
H -3.4865492531 -0.0540848638 -0.050480932
H -2.5312291133 -0.8117363618 -1.3337598442
H -2.5494257102 -1.5183158082 0.2837407776
H -1.3869996314 0.5106732503 1.1869474849
H -1.3666558185 1.2190673572 -0.4379805662
H 2.5152951 -1.1593273603 0.6567795413
H 2.9494900491 -0.0972653864 -0.6809380801
H 1.8525198281 -1.4831086523 -0.9541174338
*
