! pbe def2-sv(p) def2/J RI DEFGRID1 loosescf d4 GCP(DFT/SV(P)) printgap
%output
    printlevel normal
end
* xyz 0 1
C -2.2777002165 -1.0919730662 -0.2146241284
C -0.8984339393 -0.5851046052 0.2051231784
H -0.8067403082 -0.7007169539 1.2976420323
C -0.7386881807 0.9149104556 -0.1335759513
H -1.3211288378 1.1476214821 -1.0401831521
C 0.7443445606 1.2460779935 -0.4056611606
H 0.9037261189 2.2976687862 -0.1188651863
C 1.6149600856 0.3457067078 0.4742324038
H 2.675883281 0.5594031327 0.290013882
C 1.3917875926 -1.1341283093 0.0466947085
H 1.5791720947 -1.7818708745 0.9168335164
O 0.0763540145 -1.3557009805 -0.4447981091
O 2.2733804381 -1.5122383773 -0.9396263561
O 1.3639276911 0.5594351068 1.8381737295
O 1.115313743 1.0291845961 -1.744642511
O -1.1686414448 1.7163666272 0.9422063289
O -3.2410009197 -0.263616109 0.4071921381
H -2.3847409384 -2.1360705518 0.0985375099
H -2.360890522 -1.043078202 -1.3078082989
H 2.0932318171 -0.9556506133 -1.7121270461
H 0.5379627156 1.0559730104 1.9358965516
H 0.5756330904 1.584781842 -2.3179861256
H -2.0789054239 1.4579511412 1.1439769733
H -4.1185533717 -0.6102410422 0.2167768469
*
