! pbe def2-sv(p) def2/J RI DEFGRID1 loosescf d4 GCP(DFT/SV(P)) printgap
%output
    printlevel normal
end
* xyz 0 1
C -2.3981043124 -0.7167801784 -0.0185761862
C -0.9778270517 -0.2762132746 0.3513880515
H -0.9509522228 -0.0065065869 1.4177650038
C -0.5235406754 0.9297099291 -0.4857047502
H -0.54988227 0.6561690514 -1.5473012752
C 0.9240303729 1.3374776073 -0.1132248853
H 0.8880735509 2.1481143923 0.6237288247
C 1.6818800631 0.1597871971 0.5356645629
H 2.7520912969 0.286285522 0.3140231898
C 1.2085918283 -1.1511216681 -0.1081313413
H 1.7594504407 -2.0131178731 0.311801538
O -0.135151899 -1.4161071094 0.1485431341
O 1.467341085 -1.0473822795 -1.484077666
O 1.4445749568 0.1762680042 1.918860704
O 1.627997001 1.8444333359 -1.2078915564
O -1.424265867 1.995471056 -0.3648323296
O -2.8869941399 -1.6912113339 0.8610343795
H -2.3922348442 -1.0900052911 -1.0528149026
H -3.0733610385 0.1378407526 0.0458835605
H 1.0683705075 -1.8048180545 -1.9294614037
H 1.9197210543 -0.5500539914 2.3383383075
H 1.7359738819 1.1305962555 -1.8512142442
H -1.3960536252 2.3323533849 0.5389320312
H -2.2328607087 -2.3986570417 0.9043935307
*
