! pbe def2-sv(p) def2/J RI DEFGRID1 loosescf d4 GCP(DFT/SV(P)) printgap
%output
    printlevel normal
end
* xyz 0 1
C -2.5407769761 -0.4908891478 -0.4423427423
C -1.3845227567 0.1886465264 0.2678079267
O -0.1759065807 -0.4972668612 -0.0671755801
C 0.970013801 0.1714778004 0.0901372807
O 1.0369805996 1.297912527 0.5052946944
C 2.1442091702 -0.6687176194 -0.3400938963
H -2.4006040301 -0.4442576088 -1.5189911317
H -2.6004187074 -1.5343109796 -0.1448666353
H -3.4706191292 0.0069699845 -0.1833944458
H -1.5140619184 0.151890641 1.3554664015
H -1.2889717644 1.2382770054 -0.0306497357
H 2.2369952224 -0.6081843699 -1.4227340034
H 1.9816390993 -1.7063941127 -0.0651900155
H 3.0528418264 -0.2861184238 0.114262356
*
