! pbe def2-sv(p) def2/J RI DEFGRID1 loosescf d4 GCP(DFT/SV(P)) printgap
%output
    printlevel normal
end
* xyz 0 1
C -2.7295980316 -0.3894206307 -0.6242383963
C -1.4633867477 -0.0275160808 0.1160785484
O -1.3731246578 -0.1367459207 1.3122743677
C -0.3470123013 0.4745963597 -0.784739401
C 0.4919867405 -0.7220777451 -1.2686099008
C 1.3299545402 -1.3121924298 -0.1399874934
C 2.259924963 -0.2495532388 0.4350652121
C 1.4386784429 0.912330398 0.9818258606
C 0.5572535996 1.513440574 -0.1094757965
H -3.2360477605 0.5306642217 -0.9126905951
H -2.5053555295 -0.9491603662 -1.5284470257
H -3.3902465725 -0.9653700417 0.0185031898
H -0.8160466304 0.9363153257 -1.6613258852
H -0.1614261385 -1.4890194153 -1.6913828082
H 1.1561617948 -0.3738734498 -2.0638273969
H 0.6737452217 -1.6809169924 0.6503659568
H 1.9090598058 -2.1565729987 -0.5205870851
H 2.8705874071 -0.679720365 1.2309393791
H 2.9327752271 0.1090888562 -0.3488469354
H 0.8081122006 0.5566216805 1.7960188955
H 2.0998345032 1.6869528232 1.3765952824
H -0.0624147732 2.3060598019 0.3159417581
H 1.1924789928 1.9609445387 -0.8792259929
*
