! r2scan-3c def2/J RI DEFGRID2 scfconv6 printgap
%output
    printlevel normal
end
* xyz 0 1
C 1.8578368722 0.1991687632 0.2080146891
C 0.7172370745 -0.1164098696 -0.3742090979
C -0.5595482351 -0.4108362893 0.3561741427
O -1.6635032246 0.3083845697 -0.1474657255
H 2.7537577827 0.3885384746 -0.3583328096
H 1.9436477198 0.2734600664 1.2792879747
H 0.6504843368 -0.1815783882 -1.4542527786
H -0.4770863612 -0.1303369458 1.4080119711
H -0.7604914695 -1.495098403 0.3002120418
H -1.7226007571 0.159371299 -1.0980174351
*
