! pbe def2-sv(p) def2/J RI DEFGRID1 loosescf d4 GCP(DFT/SV(P)) printgap
%output
    printlevel normal
end
* xyz 0 1
C -2.3587819749 -0.5099299179 -1.1201433579
C -1.7032635815 0.0779891488 0.1047687257
O -2.3168624301 0.5392314049 1.0321396113
C -0.2074483557 0.0298848468 0.0541953822
C 0.5059421896 1.0817317711 -0.5063879288
C 1.8878296721 1.0313806828 -0.5596732664
C 2.5633940097 -0.0669029389 -0.0552444207
C 1.8549961906 -1.1146901623 0.5080962758
C 0.4730718164 -1.0686119138 0.5639566663
H -2.0174063506 0.0260632894 -2.0037288398
H -3.4408855706 -0.4460266821 -1.0418670537
H -2.0551963073 -1.5499175968 -1.2250623014
H -0.0233984276 1.9404952466 -0.8932853045
H 2.4375930828 1.8524810998 -0.9954158426
H 3.6417289059 -0.1049057107 -0.0983470392
H 2.3791210154 -1.9709772073 0.9060494663
H -0.0818341246 -1.8820140115 1.0086500106
*
