! pbe def2-sv(p) def2/J RI DEFGRID1 loosescf d4 GCP(DFT/SV(P)) printgap
%output
    printlevel normal
end
* xyz 0 1
C -3.4980050781 0.4583887075 -0.3222578531
O -2.1228323714 0.4427079405 -0.679798062
C -1.3054539559 -0.2306231493 0.141771208
O -1.687858372 -0.8126263693 1.1223133147
C 0.1326476933 -0.1151661977 -0.3149583061
C 0.9345117968 -1.3639512794 0.0768395072
C 2.4009006871 -1.0307071855 0.3665344472
C 2.8748402134 0.0905473593 -0.5513016373
C 2.1428366247 1.3964900567 -0.2180190633
C 0.7410127142 1.1313552199 0.342068013
H -3.882967967 -0.5611368315 -0.2560397756
H -4.0107133736 1.0117423869 -1.1046723631
H -3.632367319 0.946988802 0.6449407823
H 0.1270358305 0.0345232946 -1.3976204583
H 0.4740439731 -1.8092782683 0.9607506614
H 0.8739694333 -2.0934285529 -0.7329649306
H 2.5212622095 -0.7166151373 1.4042932458
H 3.0121509405 -1.9225690419 0.2207826855
H 3.9518081522 0.2338709735 -0.4507953648
H 2.6776890196 -0.1965441275 -1.5859894315
H 2.712300295 1.9645277596 0.5196664989
H 2.0697060653 2.0095089642 -1.118014572
H 0.7844338066 0.9652091314 1.4195171393
H 0.1008144616 1.9972455558 0.163692505
*
