! r2scan-3c def2/J RI DEFGRID2 scfconv6 printgap
%output
    printlevel normal
end
* xyz 0 1
C -2.8069004037 -0.150499144 -0.5664834162
C -1.4601307029 -0.0332308915 0.1060019365
O -1.3068430877 -0.287207038 1.2739582739
C -0.3416636479 0.4069057096 -0.824287187
C 0.5073314127 -0.8161088733 -1.2152656732
C 1.3465351512 -1.3205833463 -0.0469718896
C 2.2586082279 -0.2114330435 0.4657361859
C 1.4168103959 0.9711049669 0.9313456243
C 0.5507805539 1.4947436954 -0.2097967531
H -3.5334360776 -0.5852516954 0.1150566354
H -3.1435982769 0.8408367205 -0.865046359
H -2.7259713118 -0.7630639959 -1.4616635337
H -0.7998397496 0.8090795286 -1.7346853313
H -0.1441080492 -1.6135472845 -1.5821845063
H 1.1698101868 -0.522166412 -2.0336906297
H 0.6897761756 -1.6457451315 0.7612860804
H 1.9386816041 -2.1798107135 -0.3696415673
H 2.8675607453 -0.58238794 1.2920524788
H 2.9336330039 0.1070606908 -0.3336529355
H 0.7756718958 0.6541001183 1.7536187221
H 2.0620877366 1.7750186515 1.2922982812
H -0.0759638798 2.3153518488 0.1477156572
H 1.1963998058 1.8872033751 -1.0006682766
*
