! pbe def2-sv(p) def2/J RI DEFGRID1 loosescf d4 GCP(DFT/SV(P)) printgap
%output
    printlevel normal
end
* xyz 0 1
C -2.2856749561 -1.098681682 -0.1900810499
C -0.9200446862 -0.5817967094 0.2916288272
H -0.8228729511 -0.7392525584 1.3804288372
C -0.7599388938 0.9348591729 0.0224906309
H -1.4812457701 1.2549408509 -0.7384340728
C 0.6741839583 1.2338669179 -0.4646584512
H 0.8683840061 2.3055941799 -0.2799299911
C 1.653057964 0.3806853497 0.3582119632
H 2.680551556 0.5778089409 0.0305192145
C 1.3767976736 -1.1187739038 0.0665732089
H 1.5701746681 -1.6877746829 0.9906544779
O 0.0591896807 -1.3359815015 -0.3812972968
O 2.2288600948 -1.6040157395 -0.8995116381
O 1.5033222897 0.6284571996 1.7419987032
O 0.8929358086 0.9222251536 -1.8171059758
O -1.0615209881 1.6879242472 1.1686627101
O -3.3337442632 -0.2019714397 0.0546789335
H -2.4795583828 -2.0761193129 0.2716604544
H -2.2403951794 -1.2341203932 -1.2730952226
H 1.9703744408 -1.1920193697 -1.7371580299
H 2.0059904877 1.41619339 1.9772947592
H 0.1727854497 1.2854356519 -2.344859615
H -0.4212975116 1.4381652918 1.8529273818
H -3.2934766284 0.0944358131 0.9714960348
*
