! r2scan-3c def2/J RI DEFGRID2 scfconv6 printgap
%output
    printlevel normal
end
* xyz 0 1
C -2.6462747323 -0.1171863415 -0.0008584552
O -1.3623813739 -0.7248555153 0.0006797934
C -0.3138611242 0.1161182314 0.0008396896
O -0.4248694286 1.315593941 0.0002292063
C 0.9639881801 -0.6328988713 0.0004756995
C 2.1290181754 -0.0264307229 -0.7433004091
C 2.1300248475 -0.0260171911 0.7421294751
H -3.3675708983 -0.9300006021 0.0065667779
H -2.7721439221 0.5002876021 -0.8925281941
H -2.7682024944 0.513266754 0.8822153337
H 0.8429632242 -1.7068889805 0.0008686852
H 2.7879094291 -0.6983650439 -1.2710348522
H 1.9449107733 0.9107483242 -1.2457246575
H 2.789515261 -0.6978858679 1.2692145456
H 1.9468298414 0.9113667745 1.2445015423
*
