! pbe def2-sv(p) def2/J RI DEFGRID1 loosescf d4 GCP(DFT/SV(P)) printgap
%output
    printlevel normal
end
* xyz 0 1
C -2.4837906739 -0.4850607406 -0.2620887471
C -1.0725213908 -0.1856130298 0.257475234
H -1.0300379567 -0.4034801939 1.3373348706
C -0.646407814 1.2848670586 0.0273417225
H -1.2870491708 1.7451376526 -0.739573629
C 0.8044608699 1.3128242753 -0.5031665497
H 1.1968703692 2.3288471395 -0.3958795081
C 1.6656499253 0.3402176234 0.323973423
H 2.6917544549 0.339382471 -0.0663348211
C 1.1055591042 -1.102881206 0.1466521539
H 1.0675295134 -1.5930286202 1.131262235
O -0.2007577615 -1.0711227643 -0.4224423211
O 1.8917533502 -1.8965877611 -0.6574232737
O 1.7432751932 0.7113375989 1.6713540299
O 0.8449386632 1.006426892 -1.870437958
O -0.6937333672 2.0325975119 1.223441098
O -2.8924394136 -1.7774135676 0.0757965141
H -2.4925790626 -0.3407356963 -1.3528161955
H -3.205013277 0.1981087938 0.1929057965
H 1.9991084671 -1.4774752948 -1.5217182674
H 0.9579564349 1.2290033736 1.9041590845
H 0.385415625 0.1617764014 -1.9939704056
H -1.6067958062 2.1172718446 1.5188642959
H -2.2059556086 -2.3893986812 -0.2193491932
*
