! pbe def2-sv(p) def2/J RI DEFGRID1 loosescf d4 GCP(DFT/SV(P)) printgap
%output
    printlevel normal
end
* xyz 0 1
C -1.8389185173 -0.909761691 -0.8393832508
C -1.3240782403 -0.1578328904 0.4079795574
H -2.1456800899 -0.0870387975 1.1335501665
C -0.8655190051 1.2737574477 0.0455286613
H -1.1608059198 1.5117753877 -0.9822972784
C 0.6638196807 1.3712566374 0.1526758798
H 0.9409322779 1.4736782797 1.2167282337
C 1.3329511061 0.1007340022 -0.3872059567
H 1.025110743 -0.0524788616 -1.4340012338
C 0.8979341668 -1.1087083121 0.4732133775
H 1.6397843702 -1.2180195494 1.2759817741
O -0.3300756395 -0.8700558943 1.1245889674
O 0.8997623448 -2.3000305926 -0.2331249574
O 2.7249920288 0.2084328158 -0.3053961259
O 1.160186282 2.4662903454 -0.5802646752
O -1.4900673371 2.2583403298 0.83265866
O -1.8815989068 -2.3019850818 -0.6491993493
H -1.1763884551 -0.7496298534 -1.6932743415
H -2.8328365919 -0.5169835314 -1.0925386977
H 0.0043976414 -2.4823524095 -0.5694760462
H 2.9721548558 1.0496795503 -0.7122158843
H 0.6362393461 3.2436912617 -0.3533428136
H -1.2864408068 2.0941218345 1.7620772249
H -2.2996986535 -2.4962283935 0.1985193139
*
