! pbe def2-sv(p) def2/J RI DEFGRID1 loosescf d4 GCP(DFT/SV(P)) printgap
%output
    printlevel normal
end
* xyz 0 1
C -3.1493883548 0.020250083 1.0596254692
O -1.7533086713 0.0470270666 0.7983795893
C -1.361842468 -0.0586002351 -0.4781755647
O -2.1229589456 -0.1660896712 -1.4040659011
C 0.1463514574 -0.0254096305 -0.5993993714
C 0.758741318 -1.237323147 0.1121985981
C 2.278448395 -1.2127349651 -0.0170717736
C 2.8441220977 0.0798189554 0.5629182921
C 2.2316017795 1.2889563724 -0.1370631484
C 0.7117738519 1.2695725278 -0.007414082
H -3.340446622 0.7247842934 1.8670703501
H -3.4426697865 -0.9858546608 1.3652041586
H -3.7028284896 0.3025054004 0.1621873781
H 0.3829899395 -0.073450613 -1.6670127331
H 0.4780562624 -1.2076174025 1.166773754
H 0.3611284866 -2.1577082983 -0.3211042324
H 2.7040376625 -2.0729989865 0.5033399834
H 2.554182477 -1.2889211746 -1.0712521911
H 2.6180247354 0.1267781687 1.6305173117
H 3.929912281 0.0945926131 0.4492346646
H 2.6245534134 2.210235151 0.2974666086
H 2.5058834274 1.273752639 -1.1942959553
H 0.4308419588 1.3304109781 1.045518791
H 0.2812943702 2.1294854183 -0.5251998868
*
