! pbe def2-sv(p) def2/J RI DEFGRID1 loosescf d4 GCP(DFT/SV(P)) printgap
%output
    printlevel normal
end
* xyz 0 1
C -2.3766902514 -0.8513851804 0.4671509375
C -0.9232048872 -0.3988177414 0.6516931392
H -0.6587691972 -0.4551086116 1.7190055609
C -0.7281206313 1.0541349215 0.1657600924
H -1.4605826902 1.2739233455 -0.617795041
C 0.6823033515 1.2376326415 -0.433242462
H 0.9695287836 2.2858161757 -0.272914237
C 1.6660023632 0.3201915127 0.3119993601
H 2.6820870367 0.4468477886 -0.0957330602
C 1.257393847 -1.1504557461 0.0361903364
H 1.6382776564 -1.7909055251 0.8530740941
O -0.1306292091 -1.3084407543 -0.0915156914
O 1.8464631226 -1.6079660474 -1.1295067811
O 1.6341162823 0.6663050007 1.6771010754
O 0.6572461578 0.9221002437 -1.806121117
O -0.9562906466 1.9667013128 1.2007754996
O -2.7573048793 -0.8268170133 -0.8788133678
H -3.0383110328 -0.1656119889 0.9996207177
H -2.4847589464 -1.862898339 0.8840726545
H 1.3540446095 -1.2069374292 -1.8627939687
H 2.2598592534 0.113456735 2.158856013
H 1.4467279569 1.2779627307 -2.2288574739
H -0.2646468963 1.8408114502 1.8651682974
H -2.0713929423 -1.2892205484 -1.3768426005
*
