! pbe def2-sv(p) def2/J RI DEFGRID1 loosescf d4 GCP(DFT/SV(P)) printgap
%output
    printlevel normal
end
* xyz 0 1
C -2.1316743164 -1.065772855 -0.4932632837
C -1.2052104087 -0.2118750407 0.3882193758
H -1.7812355372 0.1258247592 1.2613865032
C -0.6508269297 1.0078370553 -0.3593570302
H -0.5502442333 0.7873219155 -1.4284331435
C 0.7371612483 1.3429866398 0.2056889455
H 0.6731226077 1.4423500318 1.3032600533
C 1.677395975 0.1834287284 -0.131663303
H 1.854189102 0.2060581358 -1.2203610971
C 1.0009613093 -1.1616650455 0.2359659038
H 1.6754760754 -1.696482622 0.9205770617
O -0.1689886662 -1.0038840476 0.9670450089
O 0.738644959 -1.9297800441 -0.9138846855
O 2.8943097597 0.2693612336 0.5588409005
O 1.2435654978 2.531194212 -0.3498016602
O -1.4988294796 2.1270988526 -0.2984335126
O -2.7107396498 -2.1056314459 0.2450432223
H -1.5571307505 -1.4601898131 -1.3409181139
H -2.9497677558 -0.4440087938 -0.8635816058
H 1.5659228074 -2.2835030828 -1.2550291179
H 3.2193604532 1.1736873115 0.4629650655
H 0.4854121188 3.0749930965 -0.6072448821
H -1.7321088222 2.3010096856 0.6224571017
H -1.988905745 -2.5862483179 0.6703593375
*
