! pbe def2-sv(p) def2/J RI DEFGRID1 loosescf d4 GCP(DFT/SV(P)) printgap
%output
    printlevel normal
end
* xyz 0 1
C -1.9067205876 -1.437445798 -0.2542318829
C -1.0692644681 -0.5094704651 0.644775552
H -1.6476045055 -0.2730370307 1.5475036826
C -0.7801843193 0.8254509465 -0.0649504643
H -0.9113670765 0.7017954412 -1.1545022037
C 0.6641929031 1.2511890274 0.2056358566
H 0.8094537268 1.3987196695 1.2814716685
C 1.6166843179 0.1616283536 -0.2929569181
H 1.534992743 0.0871695548 -1.3916876301
C 1.212477395 -1.2049458456 0.2928271272
H 2.0281491186 -1.5442003282 0.9486401315
O 0.099210632 -1.1424328964 1.1425241175
O 1.0236490211 -2.0838927119 -0.7744710428
O 2.9411085576 0.4373379245 0.0765621641
O 0.9517536585 2.497946054 -0.3877622437
O -1.6914908862 1.7863006347 0.4111306143
O -3.0221206789 -0.7794997302 -0.7915716654
H -2.2089491458 -2.3171522608 0.3335213491
H -1.3102810331 -1.7700208026 -1.1072166704
H 0.8592974157 -2.9697293445 -0.4291130716
H 3.0880133833 1.3871438905 -0.0306708561
H 0.8474385905 2.4197242701 -1.3454181648
H -1.3094593634 2.6605479912 0.2548519713
H -3.4434555857 -0.2557542167 -0.099778853
*
