! pbe def2-sv(p) def2/J RI DEFGRID1 loosescf d4 GCP(DFT/SV(P)) printgap
%output
    printlevel normal
end
* xyz 0 1
C -2.7232091872 -0.2533730229 0.29585581
C -1.4547154039 0.0970959699 -0.4785583625
C -0.7417871076 1.2899808152 0.1750572456
C 0.7419354798 1.2900743227 -0.174573547
C 1.4548903904 0.0969270563 0.478547243
C 0.504088833 -1.1085944779 0.5718722084
C -0.5041358512 -1.1086216156 -0.5716127601
C 2.7229627856 -0.2536253111 -0.2965279297
H -3.3613356194 0.62232964 0.3956553146
H -3.2859651295 -1.030224857 -0.2176431423
H -2.4754553462 -0.6114572766 1.2929078992
H -1.7477057698 0.3811223242 -1.4955699454
H -1.2070640032 2.2210137552 -0.1545851629
H -0.8501496335 1.2368069776 1.2603867282
H 0.8502724116 1.2373036419 -1.2599236955
H 1.2071942287 2.2209926107 0.1554125162
H 1.7484369876 0.3807164202 1.4954580892
H 1.0844375382 -2.033093276 0.5550767255
H -0.0368288528 -1.0830897849 1.5194089334
H 0.0367798753 -1.0833714158 -1.5191502709
H -1.0846283358 -2.0330264812 -0.5546576542
H 3.2860360194 -1.0303320202 0.2168028851
H 3.3610065378 0.6220670617 -0.3969155391
H 2.474612313 -0.6119763281 -1.2933775927
*
