  12
        -22.13113096
 C         -2.2727531793       -0.9422017211        0.1831436068
 O         -1.0152086082       -0.6621652666       -0.4214743960
 C         -0.4574503712        0.5052442418       -0.1126592341
 O         -0.9458623451        1.3348554826        0.6002449330
 C          0.9051755763        0.6383284492       -0.7899769034
 C          1.8650874287       -0.1321980933       -0.0397406171
 N          2.6154016322       -0.7468701236        0.5630031442
 H         -2.9936049025       -0.1610090411       -0.0652647812
 H         -2.1655354269       -0.9931562198        1.2679978314
 H         -2.5920875432       -1.9014572443       -0.2147743252
 H          1.2061163876        1.6878043733       -0.7952576079
 H          0.8517475197        0.2444036029       -1.8068375711
  12
        -22.13103134
 C         -2.2615183777       -0.9732334078       -0.1722452637
 O         -1.0118313506       -0.6383517437        0.4217032847
 C         -0.4617244517        0.5215708793        0.0758596523
 O         -0.9397222746        1.3206803680       -0.6779330146
 C          0.8911998906        0.6882385233        0.7658237883
 C          1.8588336517       -0.1336645319        0.0832166747
 N          2.6159512322       -0.7888867525       -0.4658620734
 H         -2.3416769329       -0.5200327887       -1.1615757017
 H         -3.0750430993       -0.6110030096        0.4589502529
 H         -2.2940770546       -2.0581531081       -0.2404131756
 H          0.8182025226        0.3602097072        1.8046982667
 H          1.1986365275        1.7344082137        0.7104951567
  12
        -22.12877110
 C         -2.7518021007       -0.1280256606       -0.1527322960
 O         -1.4699740979       -0.4582634260       -0.6754101063
 C         -0.4188368972        0.0017690005        0.0102188995
 O         -0.4947698599        0.6564646368        1.0085498226
 C          0.8651447003       -0.4410319012       -0.6856910214
 C          2.0503159633        0.0174301046       -0.0057687502
 N          3.0018227780        0.3700785875        0.5168151887
 H         -3.4771068227       -0.5715952612       -0.8293970311
 H         -2.8755374247        0.9556218064       -0.1114066953
 H         -2.8654796346       -0.5340857054        0.8540022311
 H          0.8579076192       -0.0529281076       -1.7083510941
 H          0.8734024378       -1.5336237857       -0.7369033249
  12
        -22.12858821
 C         -2.7694978816       -0.1384586748       -0.1824798162
 O         -1.4672894073       -0.4663637896       -0.6567728141
 C         -0.4182663540        0.0049025058        0.0229919923
 O         -0.4812122184        0.6842371947        1.0058584702
 C          0.8616439118       -0.4702246911       -0.6595495558
 C          2.0506918369        0.0162465913       -0.0061481923
 N          3.0060836045        0.3901198296        0.4941458374
 H         -3.3200003736       -1.0683826312       -0.0448056344
 H         -3.2647313699        0.4790932190       -0.9319749307
 H         -2.6971379850        0.4038808507        0.7615344025
 H          0.8504935998       -0.1289526475       -1.6986184470
 H          0.8688374270       -1.5640603329       -0.6610035728
