! pbe def2-sv(p) def2/J RI DEFGRID1 loosescf d4 GCP(DFT/SV(P)) printgap
%output
    printlevel normal
end
* xyz 0 1
C -2.0878462188 -1.3621908461 -0.1846775493
C -1.0362234904 -0.5144612954 0.5526050406
H -1.4973561734 -0.1715887055 1.4884059778
C -0.6588094421 0.7326987671 -0.2597858712
H -0.5544462423 0.4885254673 -1.3337509777
C 0.6979948846 1.2344711602 0.2365684372
H 0.68047797 1.3270247809 1.3324395204
C 1.7564976793 0.1959957176 -0.1453776831
H 1.9418961694 0.2679946049 -1.2308137326
C 1.2380880487 -1.2425317686 0.1533084349
H 1.9929638829 -1.7757247716 0.7460498013
O 0.1007301076 -1.2628187688 0.9611275457
O 1.1057699918 -1.986624351 -1.020668355
O 2.9269527513 0.5174465297 0.5652947345
O 0.9452353573 2.4847362105 -0.3587659555
O -1.6700896003 1.6935648782 -0.1072902649
O -3.3335887373 -0.7248844277 -0.1917257531
H -2.213478385 -2.3151581357 0.3352321425
H -1.760094308 -1.5712919984 -1.217912129
H 0.322503669 -1.7048979304 -1.5079272723
H 3.6110458709 -0.1321162601 0.3692111444
H 1.8372422135 2.7538654266 -0.112041664
H -1.2806821843 2.5527962287 -0.3197651696
H -3.1947040644 0.2214851737 -0.3382051312
*
