  16
        -25.51537341
 C          2.4905820081        1.1842277503       -0.0028897797
 C          1.7180183730       -0.1091434918        0.0001706880
 O          2.2661181863       -1.1863558342        0.0026672528
 C          0.2279466970       -0.0055150245        0.0001585607
 C         -0.4680973004        1.2019071707        0.0016092345
 C         -1.8542296251        1.1625775050        0.0014932113
 N         -2.5558093900        0.0429225322       -0.0002312811
 C         -1.8986564134       -1.1042580131       -0.0015714429
 C         -0.5163348882       -1.1856015179       -0.0013458105
 H          3.5554490013        0.9664353847       -0.0042592891
 H          2.2434454894        1.7689776518        0.8808527027
 H          2.2403779962        1.7667877166       -0.8871593006
 H          0.0410646691        2.1520550516        0.0028913821
 H         -2.4349726533        2.0759520132        0.0020788712
 H         -2.5126444140       -1.9950849393       -0.0029147102
 H         -0.0029588599       -2.1346071328       -0.0023089517
  16
        -25.51248498
 C          2.3797178457        0.5384407872       -1.1063407083
 C          1.7255740599       -0.0793184318        0.1025626534
 O          2.3318997843       -0.5632947343        1.0217229709
 C          0.2282516214       -0.0306821116        0.0516872218
 C         -0.4679850050        1.0472335206        0.5869654772
 C         -1.8519316167        1.0411384260        0.5063096367
 N         -2.5450496035        0.0651707886       -0.0528440731
 C         -1.8811272462       -0.9606221705       -0.5553477938
 C         -0.4986560965       -1.0617218501       -0.5328708695
 H          3.4611087329        0.4556338358       -1.0360136059
 H          2.0932009829        1.5867232433       -1.1730156717
 H          2.0254793295        0.0395466805       -2.0065516698
 H          0.0575465638        1.8634748483        1.0585110192
 H         -2.4358704367        1.8585913597        0.9083616324
 H         -2.4881771879       -1.7387694197       -0.9990015583
 H          0.0019157473       -1.9216417610       -0.9510732137
