! pbe def2-sv(p) def2/J RI DEFGRID1 loosescf d4 GCP(DFT/SV(P)) printgap
%output
    printlevel normal
end
* xyz 0 1
C -4.7672155017 -0.8511301758 0.1335494817
N -3.3995214859 -0.9084088246 -0.3146571513
C -2.4652110031 -0.0224048465 0.0929574978
O -2.6605296049 0.903887459 0.8344788174
O -1.2681804173 -0.364498255 -0.4597540592
C -0.1503744044 0.4358772131 -0.2711611675
C -0.2044334809 1.8040453395 -0.2973798728
C 0.9715554655 2.5535261912 -0.1466445034
C 2.1788399399 1.9365834591 0.0141930744
C 2.2669294816 0.5288676844 0.0348135156
C 1.0853678798 -0.2440387344 -0.1068427531
C 1.1766955279 -1.6503239137 -0.0781665765
C 2.3860340243 -2.2670255349 0.0823957725
C 3.5567826236 -1.5063636329 0.2188576428
C 3.4976607609 -0.1411455234 0.196055362
H -4.8578616982 0.0112961752 0.7915585083
H -5.0341561132 -1.7551256238 0.6846271404
H -5.4459900497 -0.7333602036 -0.7132740455
H -3.1142500518 -1.6519331879 -0.9309492511
H -1.148772091 2.308699599 -0.4205527529
H 0.9050449133 3.6309602995 -0.1639760721
H 3.0837828475 2.5154944603 0.1281004698
H 0.271526888 -2.2287476704 -0.1844509463
H 2.4479690341 -3.3452087442 0.1056643685
H 4.5045367791 -2.0095549212 0.343525275
H 4.3963509295 0.4496167367 0.3019918563
*
