! pbe def2-sv(p) def2/J RI DEFGRID1 loosescf d4 GCP(DFT/SV(P)) printgap
%output
    printlevel normal
end
* xyz 0 1
C -2.3001452454 -1.0794127313 -0.2146219
C -0.9178957841 -0.578006545 0.2322590833
H -0.8207517769 -0.718581387 1.3216258911
C -0.735162237 0.9255770361 -0.0720692234
H -1.3407697595 1.2170179048 -0.9447691823
C 0.7398182216 1.2327803651 -0.4328269029
H 0.9162803103 2.2896572831 -0.2004172381
C 1.645879497 0.3514923995 0.4324531338
H 2.6983233503 0.5321377005 0.1806169848
C 1.3679064351 -1.1333533415 0.0799433695
H 1.5019387659 -1.7369569554 0.9986581341
O 0.0595696536 -1.3490538688 -0.4267097382
O 2.25254061 -1.5109131531 -0.9185283443
O 1.4726145939 0.596989495 1.8014368812
O 0.9871643954 1.07203263 -1.7979712563
O -1.0789930841 1.7017145622 1.0567754611
O -3.3291416871 -0.2456132806 0.265486025
H -2.477446012 -2.0721295078 0.2038231536
H -2.3108885246 -1.154320292 -1.3067921275
H 2.0412863319 -2.4101408082 -1.1978388932
H 0.6551501402 1.1022473345 1.9294781715
H 1.16268322 0.1372482625 -1.9748448477
H -1.9710853376 1.456452901 1.3379562309
H -3.4503636394 0.4959933146 -0.3373399113
*
