! pbe def2-sv(p) def2/J RI DEFGRID1 loosescf d4 GCP(DFT/SV(P)) printgap
%output
    printlevel normal
end
* xyz 0 1
C 0.4087245609 -1.2858074336 3.9783e-06
C 1.7598876757 -0.9760056267 -0.0002188659
N 2.2205888554 0.2628183393 -0.0001515622
C 1.352368544 1.2601558466 8.27083e-05
C -0.0201067814 1.0716906078 0.0002434191
C -0.5076416763 -0.235446564 0.0002248436
C -1.9597773735 -0.4922059305 0.0003954894
O -2.8103246017 0.3569719475 -0.0005108742
H 0.0725562069 -2.3118026408 -2.30581e-05
H 2.5125090137 -1.7534041322 -0.0004054159
H 1.78249175 2.2528362423 0.0001208902
H -0.7115286025 1.899854569 0.0003922765
H -2.2198163305 -1.5696663925 0.0014131216
*
