! pbe def2-sv(p) def2/J RI DEFGRID1 loosescf d4 GCP(DFT/SV(P)) printgap
%output
    printlevel normal
end
* xyz 0 1
C -2.241807393 -1.0132404417 -0.3474963358
C -1.1601558016 -0.2116308068 0.3959378368
H -1.6023543965 0.2238936808 1.3019760482
C -0.5763486602 0.9184404302 -0.4603053626
H -0.4120884768 0.5711353402 -1.490320764
C 0.7761503188 1.3476271116 0.1293230514
H 0.6095094074 1.6161004237 1.1886048601
C 1.77237967 0.1801426715 0.0569405215
H 2.3094566254 0.2426813133 -0.8934096276
C 1.0208707811 -1.1712885709 0.0973902304
H 1.6508130035 -1.8953570841 0.6374833461
O -0.1555269353 -1.1115342094 0.8664239103
O 0.7799701121 -1.5864157794 -1.2109901302
O 2.7478789261 0.2374528912 1.0562591669
O 1.3015152025 2.4400135728 -0.5663752838
O -1.4048907342 2.0604805353 -0.4479887706
O -2.7578570507 -2.0335011538 0.4629165327
H -1.8121728517 -1.4297870518 -1.2713437765
H -3.083220991 -0.3668242157 -0.6108712824
H 0.4468701382 -2.4926101127 -1.2090158391
H 2.3188824111 0.3055678236 1.9182488145
H 0.5916723392 3.0891160347 -0.6595651461
H -2.2426960335 1.8549848904 -0.8744895493
H -2.0147690354 -2.418459617 0.9468286786
*
