! pbe def2-sv(p) def2/J RI DEFGRID1 loosescf d4 GCP(DFT/SV(P)) printgap
%output
    printlevel normal
end
* xyz 0 1
C -3.449808176 -0.516609807 -0.0100744884
O -2.1792609843 -0.3808911522 -0.6311417227
C -1.2315504092 0.2381182258 0.0889687743
O -1.4238336277 0.679837102 1.1904950132
C 0.0817126698 0.2583326798 -0.6639489134
C 0.7220658836 -1.1362035565 -0.5098608693
C 2.2247872431 -1.0425044679 -0.7451813888
C 2.8927582497 -0.2298753412 0.3712531656
C 1.9386506387 0.8243026087 0.9438287567
C 1.0118494342 1.3620911079 -0.1401630104
H -3.8461872823 0.4644439668 0.2593714787
H -3.366835163 -1.1215062158 0.8952005651
H -4.0944757177 -1.0037084451 -0.7369376165
H -0.1473742772 0.4272529444 -1.7197342975
H 0.5416021246 -1.5199642359 0.4964047418
H 0.260268853 -1.8261042911 -1.2174177311
H 2.6573838894 -2.0433698123 -0.7879477685
H 2.3991546192 -0.5680400107 -1.7126838194
H 3.212574336 -0.8956940704 1.1747490368
H 3.7868175411 0.2551852116 -0.0249687535
H 1.3266599213 0.395116286 1.7375174996
H 2.5124307753 1.6430673358 1.3804294393
H 0.4077426626 2.1749156716 0.2658100674
H 1.6085673234 1.7609720002 -0.9621337441
*
