! pbe def2-sv(p) def2/J RI DEFGRID1 loosescf d4 GCP(DFT/SV(P)) printgap
%output
    printlevel normal
end
* xyz 0 1
C -2.6583243971 -0.7143891963 -1.0836897622
C -1.2823699453 -0.542068834 -0.4478010244
H -0.5141888124 -0.8033200685 -1.1868322261
C -1.0856948571 -1.4266767463 0.7828404536
C 0.3714194362 -1.407358231 1.2546798842
C 1.0548547971 -0.0392569373 1.026885388
H 1.7286173533 0.1441397817 1.8737727579
C -0.0062555307 1.0632287316 1.0403821511
C -1.0358003952 0.9017222303 -0.054220348
O -1.6199384293 1.8367027144 -0.5441121763
C 1.9347836386 -0.0155345701 -0.2152341013
C 2.8211104242 -0.9736779096 -0.4452436207
C 1.8553407642 1.171497864 -1.1276307849
H -2.7755230152 -1.7211638156 -1.4769511808
H -3.438768108 -0.5331948369 -0.347561986
H -2.7844497168 -0.0010845229 -1.8939507128
H -1.7508666365 -1.0774498489 1.5760352328
H -1.3769973882 -2.4515500227 0.5462521473
H 0.4030261664 -1.6611059357 2.3157901493
H 0.9252164908 -2.177637901 0.7199943579
H -0.5507255882 1.0131917745 1.9884874577
H 0.434366895 2.0588426731 0.9816527183
H 3.4675639325 -0.9474283879 -1.3056041314
H 2.9548575906 -1.8167296016 0.2110645606
H 2.5112746452 1.0316742597 -1.9832192932
H 0.844533064 1.3406798723 -1.4917051993
H 2.1719053574 2.0716567945 -0.6008342578
*
