! pbe def2-sv(p) def2/J RI DEFGRID1 loosescf d4 GCP(DFT/SV(P)) printgap
%output
    printlevel normal
end
* xyz 0 1
C -2.0780336229 -1.3859596781 -0.0989160819
C -1.0078143299 -0.5170639112 0.58234097
H -1.4357002959 -0.1282129196 1.5152548126
C -0.6229292949 0.673550865 -0.3056162243
H -0.4939771471 0.3374080251 -1.3487772609
C 0.7160522189 1.2404607636 0.1930440998
H 0.6350981467 1.4373926548 1.2700145942
C 1.8174825353 0.2011603384 -0.0613994112
H 2.1733707496 0.2855020634 -1.0949220709
C 1.2289139989 -1.2258442515 0.0973517279
H 1.9875533026 -1.86065967 0.5827681568
O 0.1354899862 -1.2735035943 0.9706592305
O 0.9199210699 -1.6997112596 -1.178389527
O 2.9471972848 0.3960381842 0.7389043362
O 0.9674946635 2.4944778169 -0.3887882479
O -1.6353612058 1.6484217522 -0.251506316
O -3.3186719906 -0.738262313 -0.1242725132
H -2.2125829834 -2.3086666913 0.4719998525
H -1.7492737499 -1.6422263008 -1.1184491707
H 0.594867127 -2.6060837641 -1.1103360637
H 2.6916534434 0.3610872274 1.668676742
H 1.2907395219 2.3713829807 -1.2894897437
H -1.2026985026 2.5135429537 -0.3138348813
H -3.1737373181 0.1844964686 -0.3758628543
*
