! r2scan-3c def2/J RI DEFGRID2 scfconv6 printgap
%output
    printlevel normal
end
* xyz 0 1
C -2.5523643303 -0.9064606943 0.2645804873
C -1.1346043971 -0.4455485952 0.6340553511
H -1.0351183123 -0.3832923719 1.7273206864
C -0.8514574345 0.9440166894 0.0433014933
H -1.1143677968 0.9245489608 -1.0298260662
C 0.6355571535 1.286643926 0.1893770947
H 0.8628617754 1.4501991383 1.2497993144
C 1.5193006491 0.1506209855 -0.3380326024
H 1.3312065044 0.0228961373 -1.4229604967
C 1.1191509483 -1.1614611355 0.369078285
H 1.2957553846 -1.0598192786 1.4503005537
O -0.2481008245 -1.4124341609 0.1080679171
O 1.8453621153 -2.2519170861 -0.0362414552
O 2.8739332996 0.4205219026 -0.1129273845
O 0.9504188752 2.5110386209 -0.4404735934
O -1.6468834772 1.8801608939 0.7227104448
O -2.6687397559 -1.140031072 -1.1114082746
H -3.2598321455 -0.1165653508 0.5188024843
H -2.789034355 -1.8134946027 0.8355129452
H 1.7441001268 -2.3716724589 -0.9889459933
H 3.0040565983 1.376113379 -0.1889531695
H 0.744497558 2.4443830811 -1.3820630108
H -1.2919453003 2.7605686509 0.5414742367
H -1.9807826821 -1.7750908061 -1.3474412413
*
