! pbe def2-sv(p) def2/J RI DEFGRID1 loosescf d4 GCP(DFT/SV(P)) printgap
%output
    printlevel normal
end
* xyz 0 1
C -2.3139215538 -0.9768799079 -0.323445957
C -0.9250643358 -0.5224910725 0.1346909569
H -0.8381030942 -0.72816296 1.2131290362
C -0.7259334976 0.9986430684 -0.0898215334
H -1.3289289681 1.337301041 -0.9422358098
C 0.7558662479 1.2481725532 -0.4383747326
H 1.0028330587 2.2961715487 -0.2426855517
C 1.6328040376 0.3343749151 0.4411109415
H 2.6921377735 0.5303257317 0.2238097116
C 1.3371176102 -1.1430541414 0.0531254084
H 1.3560872919 -1.7702152423 0.960949062
O 0.067400877 -1.2520997059 -0.5662767653
O 2.2934803937 -1.6599697405 -0.7926092082
O 1.3367796794 0.6103704358 1.7919622578
O 1.0155515374 1.0143619634 -1.7978380735
O -1.1650043691 1.7460778256 1.0102004931
O -3.317012812 -0.4245402672 0.4817812507
H -2.3944356229 -2.0623486451 -0.2324730951
H -2.4541893624 -0.7053198904 -1.3807077944
H 2.2862926692 -1.1632755239 -1.6226617875
H 1.9632650871 0.1455958508 2.3574372904
H 0.5732100136 0.1867708388 -2.0407118137
H -0.5411813516 1.6024847089 1.7357333208
H -3.1372849842 0.5174975683 0.60499022
*
