! r2scan-3c def2/J RI DEFGRID2 scfconv6 printgap
%output
    printlevel normal
end
* xyz 0 1
C -3.6051058888 -1.0337828026 0.0341098549
C -2.1099452914 -1.3258243504 -0.0069817836
C -1.2070183639 -0.1180289554 0.0210270539
C -1.7003902112 1.1596104587 0.0812963722
C -0.8525426723 2.2771066475 0.107288539
C 0.5011500827 2.1176228893 0.0726496013
C 1.0612331927 0.8247451816 0.0101528745
C 0.2049914547 -0.3092570917 -0.0161936047
C 0.8051775543 -1.5862530983 -0.0790339123
C 2.1643962743 -1.7326496991 -0.1136135247
C 3.0033260742 -0.6102454579 -0.0872452904
C 2.4591334836 0.6407641955 -0.02658574
H -3.8755834486 -0.5068469597 0.9462356298
H -4.1580276342 -1.9707277861 0.0090166125
H -3.9107936885 -0.4385737767 -0.8232715533
H -1.8934579094 -1.8963450651 -0.9156116948
H -1.8577865223 -1.9637812833 0.8458849349
H -2.7641074806 1.3336248506 0.1104737369
H -1.2878423811 3.2649417926 0.1551964686
H 1.1625621276 2.9720069504 0.0924763627
H 0.1832729436 -2.4675001964 -0.1005465625
H 2.6007821582 -2.7200173977 -0.1618215604
H 4.0750176616 -0.7432695637 -0.1151692674
H 3.093325293 1.5160529824 -0.0055685893
*
