! pbe def2-sv(p) def2/J RI DEFGRID1 loosescf d4 GCP(DFT/SV(P)) printgap
%output
    printlevel normal
end
* xyz 0 1
C -1.875533832 -1.1097929681 -0.518650501
C -1.0728014756 -0.5318994508 0.6857384075
H -1.6735011074 -0.6538423459 1.596612647
C -0.7593644087 0.9655123265 0.5354824136
H -1.6623896968 1.4731149636 0.1678360838
C 0.3890121715 1.1944669675 -0.4708494372
H 0.6332585449 2.2638022631 -0.4672686882
C 1.622650246 0.3988739819 -0.0213497728
H 2.3747798176 0.4176417993 -0.8196075091
C 1.2347057805 -1.0840447896 0.1876607156
H 2.0391412431 -1.5685871783 0.7607704567
O 0.0949612707 -1.2960434308 0.9712366149
O 1.1231044195 -1.6643247032 -1.092788474
O 2.2318864514 0.933527694 1.1124997809
O -0.0070821857 0.852115622 -1.7773447753
O -0.357866262 1.5328102535 1.7672617275
O -2.5974963664 -0.1536716801 -1.2413178945
H -2.6111426113 -1.8228361304 -0.1385293941
H -1.1878218624 -1.6533358237 -1.1757118359
H 1.0125007498 -2.6181288518 -0.9999583958
H 1.5345803596 1.1553838802 1.7502447791
H 0.3186346656 -0.0415837857 -1.965075487
H -1.0548411147 1.4002308958 2.4195778579
H -1.9642664238 0.3920092261 -1.737748738
*
