! pbe def2-sv(p) def2/J RI DEFGRID1 loosescf d4 GCP(DFT/SV(P)) printgap
%output
    printlevel normal
end
* xyz 0 1
C 2.483402398 -1.54863e-05 -0.0798178937
C 1.0139646688 -3.5698e-05 0.332124287
C 0.3011503467 1.2491154634 -0.1877086856
C -1.1682391766 1.251735482 0.2233678424
C -1.8701805788 9.55401e-05 -0.2937920721
C -1.1684052786 -1.25168867 0.2232475664
C 0.3010578081 -1.249187505 -0.1876000822
H 2.5739722282 0.0004482214 -1.164295549
H 2.9898676669 0.8820459765 0.3061501174
H 2.9894822866 -0.8826566188 0.3052438967
H 0.9585274591 -7.6094e-06 1.4270926604
H 0.7953750311 2.1434259943 0.1989544294
H 0.3720749389 1.2741269878 -1.2779671562
H -1.2391521768 1.2813404388 1.3134275709
H -1.6613708031 2.1445303972 -0.1676219937
H -2.9154039523 0.0001199954 0.0231131365
H -1.851544846 0.0001433301 -1.3862539371
H -1.2395003972 -1.2815043103 1.3132900298
H -1.6615545332 -2.1443613649 -0.1680071799
H 0.7951149695 -2.1434730004 0.1993421217
H 0.3721927867 -1.2744063616 -1.2778402839
*
