! pbe def2-sv(p) def2/J RI DEFGRID1 loosescf d4 GCP(DFT/SV(P)) printgap
%output
    printlevel normal
end
* xyz 0 1
C -2.3221781453 -1.1033750651 0.2962380297
C -1.1134188661 -0.2943455081 0.8145280696
H -1.3825865901 0.1190874603 1.7960519732
C -0.759408233 0.8803910192 -0.1088139753
H -0.8350312341 0.5777304604 -1.166011727
C 0.6788293076 1.3130790479 0.1988503286
H 0.7527416279 1.4999913311 1.282303169
C 1.6510342771 0.1877780785 -0.1786103284
H 1.8372234953 0.2583235625 -1.2641547067
C 1.0375437684 -1.1965319509 0.1242420939
H 1.7997251215 -1.813977146 0.6114523591
O -0.0008609825 -1.1457329243 1.0647918636
O 0.6764467486 -1.8780236264 -1.0401910663
O 2.8594350112 0.2940870133 0.5214024574
O 1.0407421096 2.462971767 -0.5215738297
O -1.5869386846 1.9987376797 0.1217731609
O -2.1328519692 -1.6214748176 -0.991734186
H -3.1976241316 -0.4504206896 0.2400522612
H -2.5282111098 -1.9037708066 1.0171970951
H 0.2153790572 -1.2885835509 -1.6528218247
H 3.2038639037 1.1856713905 0.3856034947
H 0.3179380887 3.096560379 -0.426707867
H -2.4931720128 1.7750623326 -0.1143364914
H -1.4155799532 -2.2724418006 -0.9485554174
*
