! r2scan-3c def2/J RI DEFGRID2 scfconv6 printgap
%output
    printlevel normal
end
* xyz 0 1
C -3.0021031423 -1.0212960618 1.7429917344
N -2.1304787994 -0.2905489798 0.8574968519
C -2.3171775293 -0.2810009176 -0.4838255553
O -3.2151930925 -0.8427937041 -1.0499665914
O -1.4180658068 0.4511683313 -1.1947274306
C -0.2381331051 0.8993870433 -0.6262345128
C -0.0443095609 2.249793353 -0.4849733912
C 1.1605060304 2.7397394132 0.0383731571
C 2.148895856 1.8787388309 0.4233152677
C 1.9857438599 0.4842741777 0.2823493125
C 0.7769171337 -0.0268013626 -0.2607011213
C 0.6313471491 -1.4200692447 -0.4267328124
C 1.6337549919 -2.2720754756 -0.0550860088
C 2.8220746912 -1.7722085372 0.4984989072
C 2.9951695969 -0.4261176719 0.6596035761
H -3.4910486463 -0.3462185681 2.447662635
H -2.4400489977 -1.7754927994 2.2974211407
H -3.7565927963 -1.5094567695 1.1288478718
H -1.3715692276 0.2348749805 1.262755101
H -0.8273075658 2.9279758664 -0.7867391175
H 1.2923028796 3.8063550867 0.1384746229
H 3.074837412 2.2524314931 0.8349233489
H -0.2772139386 -1.8058810137 -0.8653077883
H 1.5167656348 -3.3369147654 -0.1895699417
H 3.6017712418 -2.4605988712 0.7891711795
H 3.9123818399 -0.0352095499 1.0758368652
*
