! pbe def2-sv(p) def2/J RI DEFGRID1 loosescf d4 GCP(DFT/SV(P)) printgap
%output
    printlevel normal
end
* xyz 0 1
C -2.022284259 -0.5912720875 -0.6979785495
C -1.1923106128 -0.0832442526 0.5041263056
H -1.8470115384 -0.0205443331 1.3808329501
C -0.6232684216 1.3224586228 0.2550084433
H -1.3534477905 1.884000053 -0.3474860387
C 0.7092556344 1.2944413947 -0.5211807583
H 1.1655944879 2.2956136341 -0.4416992874
C 1.67567204 0.2747123011 0.118439834
H 2.5790788661 0.1808108328 -0.4968143122
C 0.9855109042 -1.103518192 0.1848975529
H 1.6049033237 -1.7924770269 0.7723488497
O -0.2131018486 -1.0248852706 0.9150922624
O 0.8384045329 -1.6813812196 -1.0706327675
O 2.0970518867 0.7029200103 1.37992888
O 0.4364635768 0.9886157882 -1.8741489661
O -0.4510542717 1.9227319007 1.5184871615
O -2.2968969288 -1.9568219095 -0.5911850445
H -1.5069365576 -0.3652909889 -1.6430687475
H -2.9853422438 -0.0750452597 -0.706036534
H 0.4462991121 -1.0306081514 -1.6749998253
H 1.3189211024 0.7440727082 1.9582251973
H 1.2340702249 1.133353426 -2.3966653933
H -0.137697343 2.8287656552 1.4131379489
H -1.4702982857 -2.4040225881 -0.3562491261
*
