! r2scan-3c def2/J RI DEFGRID2 scfconv6 printgap
%output
    printlevel normal
end
* xyz 0 1
C -2.8478781719 -0.7880863211 0.2850978423
C -1.7196647024 -0.2167338944 -0.582639032
H -2.1726762394 0.1528899358 -1.5094224044
C -0.6592557295 -1.2653787811 -0.9266585162
C 0.2050589325 -1.6331603509 0.2720292972
C 0.9247320445 -0.3982468107 0.8330641482
H 1.4422779296 -0.6974054751 1.753155796
C -0.1092712532 0.6694220045 1.2100884415
C -1.1249388677 0.9788299214 0.1373394631
O -1.5027055551 2.1041847931 -0.0844390953
C 1.9795944664 0.0952127469 -0.1312623999
C 1.7769247405 1.0551556597 -1.0186642219
C 3.3029070174 -0.6026290077 -0.0137858771
H -3.5823493019 -0.0146427036 0.4982827518
H -3.3441456597 -1.5994847559 -0.243063883
H -2.4694916752 -1.1713686835 1.2289686554
H -1.1540273921 -2.1589207794 -1.3143302329
H -0.0154812242 -0.8708777712 -1.7157859466
H -0.4102512306 -2.0765363977 1.0570116561
H 0.9389579437 -2.3825893267 -0.0303300441
H -0.6794785086 0.3105822986 2.0724551731
H 0.3858432105 1.5974946723 1.5022864509
H 2.5560303581 1.3644961689 -1.6955088384
H 0.8441559372 1.5820893032 -1.1086712491
H 3.9806018828 -0.2889659157 -0.8028850527
H 3.7617858919 -0.3732018416 0.9481683635
H 3.1773762105 -1.6830680189 -0.0698833151
*
