  17
        -25.24692480
 C         -2.4752476072       -1.1810211441       -0.0037681085
 C         -1.6921741442        0.1097038872        0.0002182982
 O         -2.2476171572        1.1858599496        0.0031920767
 C         -0.2093352440        0.0046184776        0.0005081757
 C          0.5247200650        1.1918728876       -0.0013604437
 C          1.9051987096        1.1692001210       -0.0019868070
 C          2.5748495472       -0.0439737391       -0.0005620021
 C          1.8570471883       -1.2293602468        0.0016949241
 C          0.4744373183       -1.2102750014        0.0021815766
 H         -2.2310877881       -1.7646193952       -0.8886905750
 H         -3.5382055344       -0.9533870324       -0.0055172023
 H         -2.2349394959       -1.7678710981        0.8800728187
 H         -0.0171005076        2.1260502145       -0.0023640521
 H          2.4612700165        2.0949210644       -0.0035906988
 H          3.6546743454       -0.0671858703       -0.0011560833
 H          2.3795827392       -2.1748559395        0.0030898398
 H         -0.0634174126       -2.1454470222        0.0041219679
  17
        -25.24460856
 C         -2.4643047472        0.6356541620       -1.0323829801
 C         -1.6924328287       -0.0223158979        0.0862466233
 O         -2.2568910937       -0.6061162678        0.9837157577
 C         -0.2069732865        0.0194113227        0.0141210250
 C          0.5043332300        1.1028191328       -0.4951895537
 C          1.8871486680        1.0796102979       -0.5136461187
 C          2.5747862729       -0.0246048300       -0.0373983815
 C          1.8758304782       -1.1026430939        0.4813786240
 C          0.4953253269       -1.0752988302        0.5177449437
 H         -1.8554099206        1.2939184455       -1.6409348240
 H         -3.3135316223        1.1763772494       -0.6206197628
 H         -2.8592831664       -0.1575169658       -1.6667848920
 H         -0.0131625458        1.9831222082       -0.8462975469
 H          2.4317677077        1.9281247042       -0.9012334860
 H          3.6543631110       -0.0405066335       -0.0631777005
 H          2.4088560645       -1.9608990951        0.8626922242
 H         -0.0650341401       -1.9017840176        0.9289587329
  17
        -25.24266009
 C         -2.3587819749       -0.5099299179       -1.1201433579
 C         -1.7032635815        0.0779891488        0.1047687257
 O         -2.3168624301        0.5392314049        1.0321396113
 C         -0.2074483557        0.0298848468        0.0541953822
 C          0.5059421896        1.0817317711       -0.5063879288
 C          1.8878296721        1.0313806828       -0.5596732664
 C          2.5633940097       -0.0669029389       -0.0552444207
 C          1.8549961906       -1.1146901623        0.5080962758
 C          0.4730718164       -1.0686119138        0.5639566663
 H         -2.0174063506        0.0260632894       -2.0037288398
 H         -3.4408855706       -0.4460266821       -1.0418670537
 H         -2.0551963073       -1.5499175968       -1.2250623014
 H         -0.0233984276        1.9404952466       -0.8932853045
 H          2.4375930828        1.8524810998       -0.9954158426
 H          3.6417289059       -0.1049057107       -0.0983470392
 H          2.3791210154       -1.9709772073        0.9060494663
 H         -0.0818341246       -1.8820140115        1.0086500106
