! pbe def2-sv(p) def2/J RI DEFGRID1 loosescf d4 GCP(DFT/SV(P)) printgap
%output
    printlevel normal
end
* xyz 0 1
C -2.5321316717 -0.9344262679 0.269588075
C -1.1176098205 -0.4778781095 0.6282314783
H -1.0394183438 -0.4012700688 1.7247512468
C -0.8339811325 0.9093707898 0.033846615
H -1.0574754098 0.8847028797 -1.0423865747
C 0.6432921594 1.2760126303 0.2162498361
H 0.857251492 1.3884331371 1.2928920042
C 1.5182811617 0.1524015018 -0.3340894946
H 1.3307072133 0.0429078735 -1.4153316656
C 1.1289918399 -1.163446765 0.3668617016
H 1.3527462207 -1.0691952919 1.4454861915
O -0.2204841102 -1.4580576491 0.1512646295
O 1.8878494161 -2.2223628782 -0.1150214231
O 2.8701691043 0.4655470197 -0.1010497629
O 0.8746591121 2.4972603056 -0.4436861397
O -1.6589985816 1.8365697333 0.6911957865
O -2.6806019637 -0.9277305514 -1.1300006652
H -3.2352654272 -0.2393524643 0.7447162874
H -2.6797940308 -1.9446333202 0.6723107107
H 1.4019230375 -2.605225781 -0.8565521362
H 3.3749460241 -0.3559651102 -0.1599880467
H 1.830662894 2.6174093777 -0.493899048
H -1.3753217318 2.7129111156 0.401218343
H -3.5686112886 -1.2304332991 -1.3459123095
*
