! pbe def2-sv(p) def2/J RI DEFGRID1 loosescf d4 GCP(DFT/SV(P)) printgap
%output
    printlevel normal
end
* xyz 0 1
C -2.5416392664 -0.6503215976 1.150054501
C -2.0303130744 -0.4303006425 -0.2780967952
H -2.9041147275 -0.4268455134 -0.9406605138
C -1.0598232082 -1.517015999 -0.7339796523
C 0.2563141564 -1.5018777525 0.047630478
C 0.7781172115 -0.0743007192 0.3114934078
H 0.5267978917 0.2079272657 1.3389318574
C 0.0886279558 0.9436596195 -0.6095665523
C -1.3995470633 0.947908813 -0.3709747106
O -2.0416768578 1.9611382833 -0.2454217246
C 2.2821643287 0.021299641 0.1585872873
C 2.8948741459 -0.254453592 -0.9814190053
C 3.0270862857 0.4627111833 1.3799968594
H -3.0684747306 -1.5995635308 1.217240131
H -1.7206308953 -0.6577578837 1.8619055474
H -3.2249654395 0.1503700242 1.4220416442
H -1.5319962035 -2.4955027855 -0.6240407983
H -0.8539366413 -1.3761709221 -1.7973216883
H 0.1218624413 -2.0141983595 1.0014664361
H 1.000989093 -2.0671310206 -0.5146975241
H 0.4846648328 1.9461182583 -0.4377276965
H 0.2723292219 0.684074744 -1.6537911634
H 3.9637153617 -0.1791754142 -1.0832676004
H 2.3602075068 -0.5685329325 -1.8620406882
H 2.8551533031 -0.2373729671 2.1975218742
H 4.0952583138 0.5223510429 1.1896962925
H 2.6732573331 1.4419351476 1.7019872093
*
