! pbe def2-sv(p) def2/J RI DEFGRID1 loosescf d4 GCP(DFT/SV(P)) printgap
%output
    printlevel normal
end
* xyz 0 1
C -2.4858335481 -0.7398316688 1.2457345179
C -2.05350579 -0.4171593247 -0.1904280778
H -2.960397224 -0.3242979496 -0.7961241353
C -1.1383492181 -1.5099315081 -0.7775181432
C 0.2845987815 -1.0132404216 -1.0190967678
C 0.7961170835 -0.2920595526 0.2308815811
H 0.5954478088 -0.9373487541 1.0920261444
C 0.0094729693 1.0178301509 0.3779061091
C -1.3962154862 0.9498445648 -0.1712225499
O -1.9826298971 1.9399549651 -0.5339988347
C 2.2858134221 -0.0304066996 0.1780645549
C 2.8548248202 0.6239757266 -0.8215317974
C 3.0744748607 -0.5618586863 1.3356040682
H -3.1198424253 0.0538803299 1.635558221
H -3.0512629205 -1.6691404951 1.2615214432
H -1.6240671228 -0.8472689627 1.8995767897
H -1.1065665562 -2.358026718 -0.0899577165
H -1.555291686 -1.8699575879 -1.7192491565
H 0.9331127276 -1.857588151 -1.2596849773
H 0.2999316599 -0.3254945338 -1.8661754464
H -0.0640825209 1.3111197874 1.4287666812
H 0.5246466355 1.8311804158 -0.1378290687
H 3.9157857894 0.8044447864 -0.8485233932
H 2.2911182751 1.0067039323 -1.6548824812
H 2.9665030245 -1.6446593044 1.399206848
H 4.1296103316 -0.3226039428 1.2351891461
H 2.7063628964 -0.1357580381 2.268846491
*
