! pbe def2-sv(p) def2/J RI DEFGRID1 loosescf d4 GCP(DFT/SV(P)) printgap
%output
    printlevel normal
end
* xyz 0 1
C 1.0828662077 -1.499418061 0.4017559907
C 0.7507197517 -0.0082282661 0.4007070392
C 1.5846616003 0.7595349795 -0.6459360455
C -0.7243736578 0.2520080797 0.1331055377
O -1.3631215897 1.0183991368 0.8090969712
C -1.3313649656 -0.4904042366 -1.0304328348
H 2.1207994056 -1.6417047759 0.6949479541
H 0.4537441407 -2.030660119 1.112872912
H 0.9437918624 -1.9371546058 -0.5833195873
H 0.9634319139 0.3957822039 1.3951068262
H 2.2728808594 0.0882300459 -1.1537721557
H 2.1637388116 1.548085646 -0.1743840101
H 0.9484632482 1.2242539512 -1.3963563056
H -0.6406027938 -0.5555855858 -1.8656476381
H -2.2509789829 -0.0006884665 -1.3403562975
H -1.5739064944 -1.5005528496 -0.7046820602
*
