  19
        -26.28835364
 C         -2.6331259653       -0.6088023115       -0.7600142235
 C         -1.8523120464       -0.5706620339        0.5546491271
 C         -0.3852014411       -0.3849603623        0.2952739866
 C          0.4791371235       -1.4649801073        0.2212610082
 C          1.8268532700       -1.2961232521       -0.0485587775
 C          2.3298728895       -0.0243359210       -0.2495173954
 C          1.4850626350        1.0691277546       -0.1809938887
 C          0.1336490813        0.8968531683        0.0854084612
 O         -0.7171236213        1.9620182804        0.1559505836
 H         -2.2764870852       -1.4212696027       -1.3898261657
 H         -2.5046767924        0.3274877917       -1.2969304704
 H         -3.6932990504       -0.7559921638       -0.5674201221
 H         -2.0124370476       -1.5019579410        1.1013351502
 H         -2.2179172963        0.2594086904        1.1610361926
 H          0.0850708061       -2.4582919585        0.3819536476
 H          2.4804069667       -2.1537707774       -0.1002556917
 H          3.3788447934        0.1225967692       -0.4594601950
 H          1.8738136556        2.0679049586       -0.3364930796
 H         -0.2218636293        2.7772081946        0.0135436845
  19
        -26.28762650
 C         -2.6516986810       -0.5739884846        0.7701485294
 C         -1.8472050054       -0.6294286832       -0.5321480478
 C         -0.3797008284       -0.3927190699       -0.2817135636
 C          0.4966316829       -1.4654998960       -0.1938556640
 C          1.8430851281       -1.2807929464        0.0603359200
 C          2.3369936467        0.0010856513        0.2316551465
 C          1.4849107543        1.0840356545        0.1508464848
 C          0.1296367064        0.8962211160       -0.0990864424
 O         -0.6517281964        2.0114786488       -0.1568418822
 H         -2.5320025523        0.3853349582        1.2701728197
 H         -2.3088086141       -1.3502035378        1.4503606836
 H         -3.7099239556       -0.7306142008        0.5715981135
 H         -2.2429659671        0.1025162354       -1.2451828825
 H         -1.9741239207       -1.6146453093       -0.9845324481
 H          0.1099850712       -2.4656505709       -0.3306153012
 H          2.5030545893       -2.1327398084        0.1226970703
 H          3.3866714438        0.1588928803        0.4287770026
 H          1.8437754111        2.0927824983        0.2817096126
 H         -1.5645194537        1.7608556386       -0.3406373656
  19
        -26.28702632
 C         -2.6476562031       -1.4994518758       -0.1086655413
 C         -1.9539010490       -0.1502668709        0.0102242380
 C         -0.4502916214       -0.1917796856       -0.0124532890
 C          0.2980475182       -1.3501370087       -0.1310250937
 C          1.6842306293       -1.3149218499       -0.1449531885
 C          2.3462126062       -0.1075809057       -0.0393151427
 C          1.6192015511        1.0644997525        0.0802645097
 C          0.2337043949        1.0266125225        0.0939317984
 O         -0.5104688006        2.1662489762        0.2106654222
 H         -2.3699421636       -2.1533133423        0.7150442534
 H         -2.3919477660       -1.9867235690       -1.0469285519
 H         -3.7261979750       -1.3598229243       -0.0819873132
 H         -2.2613979182        0.3386632807        0.9394663868
 H         -2.2831350251        0.5033966521       -0.8030547656
 H         -0.2007656456       -2.3023677582       -0.2146364477
 H          2.2434531867       -2.2336920156       -0.2385658011
 H          3.4252501779       -0.0703640024       -0.0492191376
 H          2.1280900809        2.0167209469        0.1637338946
 H          0.0791127288        2.9270150596        0.2749946500
  19
        -26.28673114
 C         -2.6377153893       -1.3800311230       -0.4551511349
 C         -1.9427523288       -0.2345246292        0.2733737352
 C         -0.4456719145       -0.2162578501        0.1186651025
 C          0.3150003388       -1.3672872332       -0.0098211699
 C          1.6929084453       -1.3143291412       -0.1425014423
 C          2.3374510291       -0.0921849774       -0.1485664802
 C          1.6002935030        1.0710371926       -0.0167180019
 C          0.2205257759        1.0153929942        0.1198558324
 O         -0.5212753078        2.1548125011        0.2566497436
 H         -2.3291265718       -1.4109487392       -1.4977565259
 H         -3.7157029975       -1.2391376473       -0.4186308749
 H         -2.4105107728       -2.3394046546        0.0027856422
 H         -2.1831310695       -0.2850353978        1.3402739767
 H         -2.3287018749        0.7175011076       -0.0955253037
 H         -0.1745539811       -2.3284376781       -0.0063904678
 H          2.2597500839       -2.2278032703       -0.2414445339
 H          3.4106716048       -0.0378788473       -0.2540325713
 H          2.0964566625        2.0336850619       -0.0187929834
 H          0.0638837520        2.9208236031        0.2241304698
  19
        -26.28536800
 C         -2.6233833786       -1.5443964081       -0.1113692022
 C         -1.9661172227       -0.1750583148        0.0101066111
 C         -0.4537070891       -0.1799784115       -0.0112370959
 C          0.2982196940       -1.3388849062       -0.1331612175
 C          1.6821288102       -1.3040790252       -0.1488243519
 C          2.3438998446       -0.0946030568       -0.0414358520
 C          1.6182481477        1.0738454398        0.0809835812
 C          0.2295202161        1.0379914962        0.0965585780
 O         -0.4175918765        2.2331137920        0.2203864388
 H         -3.7054911142       -1.4323879883       -0.0852966617
 H         -2.3290780310       -2.1902799601        0.7122700404
 H         -2.3541455577       -2.0219427017       -1.0503153510
 H         -2.3036176160        0.2827059010        0.9487021135
 H         -2.3280013479        0.4509909412       -0.8154342954
 H         -0.1980772457       -2.2922651061       -0.2181322470
 H          2.2396234519       -2.2235978972       -0.2450233469
 H          3.4227567093       -0.0582376465       -0.0527153475
 H          2.1043312335        2.0328263316        0.1666245145
 H         -1.3713044452        2.0957581542        0.2199722033
  19
        -26.28424001
 C         -2.7002269299       -0.3830206602        0.7306298482
 C         -1.8266429522       -0.7078244883       -0.4993466885
 C         -0.3621859954       -0.4431847155       -0.2513005773
 C          0.5393325107       -1.4921644020       -0.1438059786
 C          1.8841111247       -1.2678031879        0.0897591200
 C          2.3495270742        0.0292623353        0.2183486469
 C          1.4710652003        1.0898662150        0.1182394438
 C          0.1186327739        0.8624045741       -0.1105131069
 O         -0.6950320979        1.9517285963       -0.1915830490
 H         -2.0810875708       -0.0750967194        1.5710978089
 H         -3.2655192373       -1.2567788916        1.0431484396
 H         -3.4144634151        0.4120846619        0.5241272313
 H         -2.1641434261       -0.1291395519       -1.3655940004
 H         -1.9421632006       -1.7592301141       -0.7635774501
 H          0.1763107531       -2.5050204022       -0.2470670824
 H          2.5645458078       -2.1019884474        0.1691138539
 H          3.3974171990        0.2171435631        0.3976984625
 H          1.8077772000        2.1099864081        0.2154709357
 H         -1.6065705980        1.6636150033       -0.3147195908
  19
        -26.28216549
 C         -2.8775472509        0.0657761363       -0.0077648878
 C         -1.7868633962       -0.9932279982        0.0725818650
 C         -0.3492219873       -0.5285590814        0.0419189870
 C          0.6234500020       -1.5202488880        0.1347491013
 C          1.9761993912       -1.2420765513        0.1192122462
 C          2.3957103589        0.0710599096        0.0078207893
 C          1.4529973556        1.0744715593       -0.0860870921
 C          0.0882853889        0.7943569701       -0.0713473782
 O         -0.8021007657        1.8240908413       -0.1683133939
 H         -3.8518586795       -0.4188317753        0.0317387732
 H         -2.8087291061        0.6265057333       -0.9348037927
 H         -2.8053629148        0.7628678816        0.8214911147
 H         -1.9199802683       -1.6960500576       -0.7569313284
 H         -1.9238897498       -1.5665564477        0.9957184242
 H          0.2957657546       -2.5467540292        0.2223018119
 H          2.6962792517       -2.0426025839        0.1938194170
 H          3.4471242858        0.3158963479       -0.0057693236
 H          1.7703148904        2.1068197122       -0.1736116235
 H         -0.3166100494        2.6550334693       -0.2376008310
