! r2scan-3c def2/J RI DEFGRID2 scfconv6 printgap
%output
    printlevel normal
end
* xyz 0 1
C 2.3023842121 2.7575580218 0.9739266557
C 2.265451828 1.749601609 -0.1737414921
C 3.0916265898 0.4785092857 0.1493896802
C 2.0539837894 -0.6032696655 0.1423032111
C 2.1543582671 -1.958162867 0.3704091891
C 1.0026339213 -2.728599459 0.2993412274
C -0.2211583522 -2.1529135842 0.0030553175
C -0.3281634286 -0.7862967231 -0.2213377235
C 0.8257710567 -0.0144255832 -0.1466514955
O 0.8947467945 1.3213712627 -0.3375807405
O -1.5199142029 -0.1641108238 -0.5659868579
C -2.6464002003 -0.4444633846 0.1431388954
O -2.7161301027 -1.1864525007 1.0878714698
N -3.6784098743 0.2460995717 -0.3886891482
C -5.002960629 0.2138959974 0.175182868
C 2.7088857181 2.3986055509 -1.4838914888
H 1.6520839532 3.5985436459 0.747521996
H 1.9524361866 2.2886141645 1.8908524046
H 3.3157700947 3.1212906735 1.122230113
H 3.861036365 0.3003573539 -0.6041469889
H 3.5822008354 0.5577677223 1.1211073307
H 3.1083204598 -2.4076479069 0.6001612154
H 1.0566052974 -3.7916627223 0.4746632751
H -1.1101693611 -2.760595887 -0.0433016128
H -3.4820977944 0.8684276305 -1.1556768133
H -5.7301465371 -0.1109882017 -0.5713028905
H -5.2922681362 1.1967034182 0.553672527
H -4.98795947 -0.4977284146 0.9988881952
H 3.7321255099 2.754903261 -1.3989180581
H 2.0585232326 3.2372297687 -1.718572541
H 2.6471817652 1.6770623 -2.2955188365
*
