! pbe def2-sv(p) def2/J RI DEFGRID1 loosescf d4 GCP(DFT/SV(P)) printgap
%output
    printlevel normal
end
* xyz 0 1
C -2.2838303038 -0.9737998809 0.4577201983
C -0.9530616576 -0.3132630725 0.8451017239
H -1.0515845581 0.0667278626 1.8704310934
C -0.6704058433 0.8796046693 -0.0751852819
H -0.92548219 0.5984383952 -1.1087953981
C 0.8053376893 1.3353022916 -0.0628710317
H 0.9502340678 2.0371600565 0.7672192212
C 1.7995345559 0.1633354405 0.1277797558
H 2.6257773172 0.2828137666 -0.5790583962
C 1.0687507048 -1.1669417603 -0.1181743547
H 1.751894471 -2.0088522258 0.0864318625
O 0.0684045506 -1.304715426 0.8536540137
O 0.6005054403 -1.2235260832 -1.4281693707
O 2.3647467489 0.1507928285 1.410065367
O 1.0713142025 2.0708350741 -1.2320491487
O -1.5177506827 1.9233218641 0.3512696557
O -2.1625968613 -1.5180495486 -0.8436393781
H -3.0686135521 -0.2103427938 0.4939509479
H -2.5035512046 -1.7669300215 1.1820618854
H -0.2727748101 -1.6508703766 -1.4160856602
H 1.7246430949 -0.2486709229 2.0150004841
H 1.0713866807 1.459197176 -1.9793824809
H -1.2641067512 2.7180734246 -0.1344609547
H -2.9936226654 -1.9400036081 -1.0822235483
*
