! pbe def2-sv(p) def2/J RI DEFGRID1 loosescf d4 GCP(DFT/SV(P)) printgap
%output
    printlevel normal
end
* xyz 0 1
C -2.1949054672 -0.9053948771 -0.1494005616
C -1.1279067309 -0.3284726645 0.8050239765
H -1.5947695078 -0.3101823655 1.7987853003
C -0.7259131881 1.1289156391 0.4898211697
H -1.5854499921 1.6461347384 0.0477040209
C 0.4712053754 1.2449364687 -0.4858260724
H 0.7990329899 2.2959433566 -0.4510596092
C 1.606590933 0.3331014812 0.000795536
H 2.4079062309 0.313864973 -0.7536710321
C 1.068631536 -1.1107005551 0.1274524067
H 1.8421921906 -1.7277761547 0.6066942835
O -0.0216406893 -1.2113414468 0.9814247808
O 0.8377017235 -1.6146956511 -1.1626703874
O 2.1045100696 0.7261727267 1.2571761128
O 0.108741198 0.9594283608 -1.816950573
O -0.4363021545 1.8216730375 1.6758027523
O -1.7938117662 -1.0285907656 -1.4905391024
H -3.0944306826 -0.2819906217 -0.0694181465
H -2.4374841904 -1.9184841445 0.1809130119
H -0.1268802066 -1.749662779 -1.2852638981
H 2.5480979063 1.5782837514 1.1691814337
H 0.5213946633 0.1150908213 -2.0699022179
H 0.3260645065 1.3864978868 2.0898893141
H -1.5395947373 -0.1523238303 -1.8306693799
*
