! pbe def2-sv(p) def2/J RI DEFGRID1 loosescf d4 GCP(DFT/SV(P)) printgap
%output
    printlevel normal
end
* xyz 0 1
C -3.8016615983 0.7378350908 0.0005046708
O -2.3843264449 0.808731862 0.0090687255
C -1.7098634725 -0.3539628726 -0.0024907187
O -2.2476743792 -1.4356419243 -0.0101853799
C -0.2456364204 -0.1532644138 0.0015821941
C 0.5746640278 -1.2794621002 0.0062313308
C 1.9467470483 -1.1455656445 0.0058450852
C 2.5219749515 0.1228590342 -8.52568e-05
C 1.7043133778 1.252926639 -0.0035773007
C 0.3339399386 1.115174329 -0.0027342089
O 3.8634705379 0.305370379 -0.0027631696
H -4.1287609928 -0.2520930309 0.3247296462
H -4.1672843427 0.9287998609 -1.0104065277
H -4.1697886037 1.5053044296 0.6795318001
H 0.1134358015 -2.2551991958 0.0099074521
H 2.5806581269 -2.0225049362 0.0095888701
H 2.1704625888 2.22527369 -0.0075986676
H -0.2989683809 1.9880493881 -0.0062268725
H 4.3162791112 -0.547336205 -0.0008082935
*
