! pbe def2-sv(p) def2/J RI DEFGRID1 loosescf d4 GCP(DFT/SV(P)) printgap
%output
    printlevel normal
end
* xyz 0 1
C 1.0515697089 1.2529659549 -0.2312329781
C 0.5211205898 0.0076484458 0.4845597317
C 1.0162974779 -1.2608828455 -0.2130295081
C -0.9847800715 0.0449772695 0.5526531151
C -1.7884870486 -0.042217423 -0.4907847684
H 2.1393836769 1.247684734 -0.2442846868
H 0.7154232487 2.1552548599 0.2750496013
H 0.6926886175 1.282182782 -1.2570229098
H 0.9130478887 0.0087319221 1.5073949739
H 0.691159698 -1.2813670315 -1.2497356182
H 2.1033362114 -1.3013974257 -0.1929104193
H 0.6274257815 -2.1455378197 0.2865416915
H -1.4096636256 0.1650368503 1.540800604
H -2.8596413288 -0.0018429057 -0.3879619472
H -1.4171296132 -0.1584356435 -1.4953640247
*
