! pbe def2-sv(p) def2/J RI DEFGRID1 loosescf d4 GCP(DFT/SV(P)) printgap
%output
    printlevel normal
end
* xyz 0 1
C 2.873090118 2.2088193699 1.2143523045
C 2.1611554896 1.7201858515 -0.0463699096
C 2.8602453005 0.4736186935 -0.6470978773
C 1.8620916639 -0.6169009656 -0.4012625648
C 1.9136514624 -1.9686255311 -0.6573006483
C 0.815614188 -2.751295812 -0.3229623033
C -0.3052743575 -2.183769712 0.2556605676
C -0.3682486632 -0.8159688079 0.5156280845
C 0.7317914929 -0.0351153288 0.1743843241
O 0.8325464252 1.2973842234 0.3379537417
O -1.4566718163 -0.253807631 1.1593130278
C -2.6696158271 -0.1582986844 0.5573546162
O -3.6311441949 0.1754950577 1.1953078156
N -2.6953985958 -0.4557775194 -0.7649042862
C -3.9066066885 -0.3629277163 -1.5408467423
C 2.0136319878 2.84921597 -1.0627260791
H 2.9540323648 1.3964913957 1.9333203228
H 3.8680806209 2.5708336308 0.9691265206
H 2.302626534 3.0142334937 1.6691584879
H 3.0547254115 0.5989905624 -1.7145806408
H 3.8111094592 0.2727553873 -0.1523055381
H 2.7903005281 -2.410312298 -1.1051543823
H 0.8362011888 -3.8134739745 -0.5095591257
H -1.1528026544 -2.7956588697 0.5255907463
H -1.833441379 -0.6574620963 -1.2473165186
H -4.1205128791 -1.3162909356 -2.0277049667
H -3.8266367867 0.4185626462 -2.2994180174
H -4.7144745622 -0.1161104986 -0.854387452
H 1.4504430269 3.6677913677 -0.6227407473
H 1.4786012067 2.4963402801 -1.9417146266
H 2.9928967804 3.211982186 -1.3632458721
*
