! r2scan-3c def2/J RI DEFGRID2 scfconv6 printgap
%output
    printlevel normal
end
* xyz 0 1
C -3.1949444991 0.5598243351 0.0104779034
O -2.2939970297 -0.5167975825 -0.0004215167
C -0.9515849906 -0.2379844131 -0.0019854843
C -0.1001920055 -1.3422567694 -0.0023580803
C 1.266797677 -1.1770017069 -0.0073526699
C 1.8303221516 0.0999727532 -0.0104715112
C 0.9756773556 1.19729399 -0.0124779409
C -0.3991479394 1.0357033873 -0.0069999033
N 3.2052110224 0.2679832712 0.0631758039
H -3.0881677555 1.1860523654 -0.8822487599
H -3.0720295477 1.1809581641 0.9045360486
H -4.1887230473 0.1140668532 0.0179102718
H -0.5382299259 -2.3278120222 -0.0012517499
H 1.9138773354 -2.0423688495 -0.0068615249
H 1.3925598423 2.194526994 -0.0160901444
H -1.0235703121 1.9154244888 -0.0092966411
H 3.7545755624 -0.5161688696 -0.2515004504
H 3.5512830524 1.1594740388 -0.2550337746
*
