! pbe def2-sv(p) def2/J RI DEFGRID1 loosescf d4 GCP(DFT/SV(P)) printgap
%output
    printlevel normal
end
* xyz 0 1
C -2.3915449163 -0.8607934707 0.4019106834
C -0.9456522833 -0.4137099618 0.653717786
H -0.6978472287 -0.5276264753 1.7202281065
C -0.7474955619 1.0651423147 0.2476618329
H -1.5556169945 1.3640284884 -0.4316447942
C 0.6065859756 1.2365848841 -0.4768480132
H 0.8892356824 2.3014264968 -0.4043282281
C 1.6517897277 0.3677430741 0.2409247715
H 2.6294248552 0.4854964866 -0.2426744124
C 1.25152383 -1.1196329188 0.0712445835
H 1.5757446042 -1.6710872228 0.9679276024
O -0.1347133415 -1.2731487185 -0.1225210846
O 1.8874930836 -1.6863041568 -1.0108346873
O 1.7227445693 0.6841664606 1.6148756213
O 0.5804706237 0.8269561419 -1.8223687787
O -0.8361985755 1.923337784 1.3511139804
O -2.7035300337 -0.7860233743 -0.9627300403
H -3.0795369225 -0.1947677228 0.9255298631
H -2.5178200222 -1.8853340295 0.7755142164
H 1.5572421999 -1.236074174 -1.8030823556
H 2.2525121098 1.4816529705 1.7265201343
H -0.208889253 1.1867626021 -2.2437011116
H -0.1605094174 1.6495772057 1.9890336599
H -2.0294203043 -1.2981051611 -1.4285697381
*
