! pbe def2-sv(p) def2/J RI DEFGRID1 loosescf d4 GCP(DFT/SV(P)) printgap
%output
    printlevel normal
end
* xyz 0 1
C -0.6518281895 -0.49223955 0.4059224807
C 0.6548555631 -0.5055884038 -0.3840088757
O 1.5258536307 0.4552686414 0.1686305317
O -1.528541336 0.4382528013 -0.1882314058
H -0.4192095391 -0.2153313256 1.4407047892
H -1.1002654491 -1.4965378238 0.39400377
H 0.4206955881 -0.2758211338 -1.4299312687
H 1.1093699902 -1.505674606 -0.3281337681
H 2.2635668938 0.5982622285 -0.4323449566
H -2.2675696402 0.6023202255 0.4057043269
*
