! pbe def2-sv(p) def2/J RI DEFGRID1 loosescf d4 GCP(DFT/SV(P)) printgap
%output
    printlevel normal
end
* xyz 0 1
C -1.4710442729 -0.0671942828 1.5402704959
C -1.6215870306 -0.1013736074 0.0441119157
O -2.7131311155 -0.1847746885 -0.4671445765
C -0.3834405942 -0.0308013567 -0.8413296281
C 0.543457176 -1.2522992887 -0.7004829446
C 1.5932272678 -1.1434788261 0.4016626559
C 2.3844857794 0.1512282854 0.2640644828
C 1.4389496741 1.3403092609 0.3785296086
C 0.3859272588 1.2975827153 -0.7250695911
H -2.4555874554 -0.1286893457 1.9986180645
H -0.8666688717 -0.9043194804 1.8783916786
H -0.9895315661 0.856020336 1.8505144088
H -0.7998444499 -0.0667119916 -1.8563556835
H -0.0651348592 -2.1473962381 -0.5519823337
H 1.0704128835 -1.3713176935 -1.6505057021
H 1.1309617402 -1.174836955 1.3889347632
H 2.2645655933 -2.0023071454 0.3296035727
H 3.1508373854 0.2061326559 1.0397560942
H 2.8854223035 0.1734075886 -0.706292638
H 0.9745637702 1.3317922025 1.3651977639
H 1.9989319951 2.2741960438 0.2904723458
H -0.3281347439 2.1141323593 -0.5943915132
H 0.8963529597 1.4614629478 -1.6775162633
*
