! pbe def2-sv(p) def2/J RI DEFGRID1 loosescf d4 GCP(DFT/SV(P)) printgap
%output
    printlevel normal
end
* xyz 0 1
C -2.5612441606 -0.883798001 0.2707086626
C -1.1448051441 -0.4256705784 0.6442162485
H -1.0573440962 -0.3338163303 1.7369540559
C -0.8316072149 0.9378172127 0.0169496686
H -1.0639264381 0.8893128768 -1.0609788133
C 0.6570200567 1.2975769966 0.1911017009
H 0.8643817197 1.4521684983 1.2573224919
C 1.5226710671 0.1496665522 -0.3246266201
H 1.3404144507 0.009266493 -1.4057136674
C 1.092940585 -1.1466616685 0.3839290126
H 1.2798574682 -1.0361093562 1.473807694
O -0.2626692437 -1.4291389799 0.1671117578
O 1.8460843427 -2.1857301588 -0.1435895083
O 2.8736092429 0.4245585969 -0.0844351956
O 0.9228370698 2.5309768365 -0.429065197
O -1.6347581025 1.9025434759 0.6434103599
O -2.6749426067 -1.1346142451 -1.1015337043
H -3.264787473 -0.0866045753 0.5126061666
H -2.8072863345 -1.7831633798 0.8521895843
H 1.4205008365 -3.0192664963 0.0886497082
H 3.3743302537 -0.383974455 -0.2504588995
H 1.2063334695 2.3795954028 -1.3372497488
H -1.2502165118 2.7660774205 0.4382156661
H -1.9548638949 -1.7304060814 -1.344231234
*
