! pbe def2-sv(p) def2/J RI DEFGRID1 loosescf d4 GCP(DFT/SV(P)) printgap
%output
    printlevel normal
end
* xyz 0 1
C 1.2282794605 0.564111289 6.25249e-05
C 0.2835604154 -0.6154076148 6.16563e-05
Br -1.5558024403 0.0278289076 -1.16843e-05
Cl 2.9086729738 -0.0425086568 -2.75087e-05
H 1.1016052985 1.1785693026 -0.8921476648
H 1.1015983519 1.1785833924 0.8923088324
H 0.4039640607 -1.2283435056 0.8923517582
H 0.4039906343 -1.2284832205 -0.8920988471
*
