! pbe def2-sv(p) def2/J RI DEFGRID1 loosescf d4 GCP(DFT/SV(P)) printgap
%output
    printlevel normal
end
* xyz 0 1
C -2.5013976775 -0.349990338 -0.3996344955
C -1.1534693669 -0.1885251394 0.310314999
H -1.2577771959 -0.4941652108 1.3635454677
C -0.6359150208 1.2742882082 0.2752171703
H -1.3716136989 1.9015493005 -0.2409903023
C 0.6880761281 1.3319947048 -0.5134601847
H 1.1063065643 2.3396750979 -0.4217825458
C 1.6970808105 0.3325264788 0.0899307006
H 2.5311789602 0.221023317 -0.6151920475
C 1.0299215745 -1.0563482037 0.2459623012
H 0.9274706124 -1.2794029818 1.3320745815
O -0.251373718 -1.0860581743 -0.3345492664
O 1.8219658627 -1.9976408985 -0.3866336154
O 2.1391498528 0.8337675415 1.3311471608
O 0.4999631962 1.1019383816 -1.8791109241
O -0.4995992049 1.8065924978 1.5630040845
O -2.9774553152 -1.6652295595 -0.3294196946
H -2.391444696 -0.0287084755 -1.445674314
H -3.24480527 0.2784137273 0.0927839618
H 1.3266361358 -2.8212344751 -0.4730552208
H 2.9038495854 0.3272013848 1.6255553699
H 0.1851353986 0.1933113191 -1.988642811
H 0.3761350531 1.571802422 1.9046122698
H -2.2855310409 -2.2458306671 -0.6679925984
*
