! pbe def2-sv(p) def2/J RI DEFGRID1 loosescf d4 GCP(DFT/SV(P)) printgap
%output
    printlevel normal
end
* xyz 0 1
C -1.7335817412 -1.0593163542 -0.6642131995
C -1.0318806555 -0.4987150176 0.5888726154
H -1.6993214175 -0.5995324678 1.4556809436
C -0.7270223327 0.9976155572 0.4256706869
H -1.6129558589 1.4651048551 -0.0381975871
C 0.4983781372 1.2403289543 -0.4767056579
H 0.8135454413 2.294315666 -0.3407143071
C 1.6738232693 0.3650946023 -0.003651275
H 2.4663291469 0.4062848048 -0.7550966832
C 1.2577537812 -1.1074490005 0.1653486655
H 2.0399511638 -1.6035108984 0.7660287111
O 0.1032061822 -1.2600439825 0.9546062615
O 1.1442359976 -1.7010168924 -1.0880465447
O 2.2013263452 0.8572670293 1.1965927462
O 0.2483250703 0.9870031157 -1.8295718452
O -0.519698975 1.5276189646 1.7191497892
O -2.940437283 -0.3884120369 -0.9334492974
H -1.9010257417 -2.1342300026 -0.5138673168
H -1.0990222184 -0.9185993483 -1.5409077668
H 0.907979025 -2.6295155216 -0.9759036825
H 1.5052848005 0.7942908492 1.8699037341
H -0.582306301 1.4044453884 -2.0886813228
H -0.2943552587 2.4631441257 1.6485861838
H -3.5604068747 -0.5539285336 -0.2138244059
*
