! r2scan-3c def2/J RI DEFGRID2 scfconv6 printgap
%output
    printlevel normal
end
* xyz 0 1
C 1.8763546902 0.1465564536 0.1811770406
C 0.699032815 -0.0143553112 -0.3902280777
C -0.5431720175 -0.4380035808 0.3313440841
O -1.6359748514 0.3045446854 -0.1708323825
H 2.7457119745 0.4359175123 -0.3832145215
H 2.0233382338 -0.0137810999 1.2370421215
H 0.5554475562 0.1584996106 -1.4469547445
H -0.4271719658 -0.2835170316 1.4135162857
H -0.7057099698 -1.5151318714 0.1541308732
H -2.4397795213 0.027875811 0.279923714
*
