  18
        -26.54801426
 C         -3.1949444991        0.5598243351        0.0104779034
 O         -2.2939970297       -0.5167975825       -0.0004215167
 C         -0.9515849906       -0.2379844131       -0.0019854843
 C         -0.1001920055       -1.3422567694       -0.0023580803
 C          1.2667976770       -1.1770017069       -0.0073526699
 C          1.8303221516        0.0999727532       -0.0104715112
 C          0.9756773556        1.1972939900       -0.0124779409
 C         -0.3991479394        1.0357033873       -0.0069999033
 N          3.2052110224        0.2679832712        0.0631758039
 H         -3.0881677555        1.1860523654       -0.8822487599
 H         -3.0720295477        1.1809581641        0.9045360486
 H         -4.1887230473        0.1140668532        0.0179102718
 H         -0.5382299259       -2.3278120222       -0.0012517499
 H          1.9138773354       -2.0423688495       -0.0068615249
 H          1.3925598423        2.1945269940       -0.0160901444
 H         -1.0235703121        1.9154244888       -0.0092966411
 H          3.7545755624       -0.5161688696       -0.2515004504
 H          3.5512830524        1.1594740388       -0.2550337746
  18
        -26.54263044
 C         -3.0705162527       -0.0098079037       -0.7451846816
 O         -2.3315352853       -0.1688571697        0.4439868041
 C         -0.9579301638       -0.0815790949        0.2602711191
 C         -0.2120019685       -1.2258455544        0.0084514110
 C          1.1583231462       -1.1461222672       -0.1335124389
 C          1.8134338890        0.0817383226       -0.0351244899
 C          1.0558490160        1.2259457734        0.2166835263
 C         -0.3144165653        1.1454255661        0.3586135738
 N          3.1747522445        0.1727562774       -0.2533129523
 H         -2.8911533366        0.9717817792       -1.1997928975
 H         -4.1201230182       -0.0954121768       -0.4686783916
 H         -2.8210407828       -0.7866172263       -1.4778539191
 H         -0.7140672515       -2.1793015394       -0.0610842520
 H          1.7350832395       -2.0401254439       -0.3237924485
 H          1.5527469884        2.1821379073        0.2997913925
 H         -0.8956593523        2.0327039707        0.5609880338
 H          3.6284249853        0.9948766273        0.1110428981
 H          3.7005777111       -0.6782950698       -0.1363763028
  18
        -26.54242362
 C         -3.0837173659       -0.0153357870       -0.7091912313
 O         -2.3257228715       -0.1707431759        0.4680206462
 C         -0.9549062812       -0.0814934205        0.2654972329
 C         -0.2100690063       -1.2254306923        0.0088104371
 C          1.1576631570       -1.1433779002       -0.1552841689
 C          1.8119344401        0.0860095754       -0.0701265496
 C          1.0548218149        1.2305987056        0.1818348950
 C         -0.3128349820        1.1476251049        0.3459428584
 N          3.1881849290        0.1583876074       -0.1601956757
 H         -4.1286019484       -0.1015937180       -0.4155102086
 H         -2.8456786438       -0.7937154850       -1.4441943554
 H         -2.9135492092        0.9655050459       -1.1691919032
 H         -0.7113883660       -2.1798461751       -0.0523084254
 H          1.7336527140       -2.0372432413       -0.3485393622
 H          1.5506843298        2.1883782935        0.2518762798
 H         -0.8935028047        2.0356427407        0.5467391452
 H          3.6470461853       -0.6136733533       -0.6155106215
 H          3.5745608152        1.0625594689       -0.3773120881
