! pbe def2-sv(p) def2/J RI DEFGRID1 loosescf d4 GCP(DFT/SV(P)) printgap
%output
    printlevel normal
end
* xyz 0 1
C -2.1206745915 -1.3521398818 -0.0127768626
C -0.951630336 -0.5445461484 0.584088198
H -1.2545809469 -0.1578282297 1.5695804479
C -0.6123883173 0.6546042058 -0.3089991524
H -0.5037004897 0.3254087681 -1.3538649176
C 0.718213943 1.2660203127 0.141693405
H 0.6376729863 1.5556790014 1.2009091874
C 1.8407111979 0.22891805 0.0203636068
H 2.3418416716 0.3954421422 -0.9422152605
C 1.2805687406 -1.2129535541 0.0037128106
H 2.0304347446 -1.8857339117 0.454314952
O 0.1579608729 -1.40065875 0.8169635627
O 1.0361274489 -1.5679766253 -1.326481804
O 2.717062419 0.4182926028 1.1000799365
O 1.0442127737 2.3768605869 -0.6473504591
O -1.6020615003 1.6522205775 -0.2132589341
O -3.3146896311 -0.6039299279 -0.0361255225
H -2.2407165073 -2.2809176227 0.5583973275
H -1.9055344247 -1.6043912228 -1.0542479683
H 0.6949991915 -2.4706054957 -1.3530437329
H 3.5456750358 -0.0427080449 0.9304313878
H 0.2557047355 2.9339378335 -0.6846326599
H -2.4509632208 1.2419501172 -0.4373017892
H -3.6085025928 -0.4556002201 0.8704733611
*
