! pbe def2-sv(p) def2/J RI DEFGRID1 loosescf d4 GCP(DFT/SV(P)) printgap
%output
    printlevel normal
end
* xyz 0 1
C -2.555769208 -0.7157098505 -0.3163877463
C -1.1795952322 -0.3077742364 0.2234932913
H -1.2193337934 -0.2754222425 1.3274706985
C -0.7339014433 1.0646444508 -0.3007963365
H -0.7525202079 1.0608904698 -1.3963633653
C 0.6995763087 1.3395088125 0.1748956856
H 0.6980674804 1.4326851948 1.2769867344
C 1.6300533414 0.1817101599 -0.2077404052
H 1.6828866417 0.1305178886 -1.3095711673
C 1.0449571113 -1.1454415395 0.3157573319
H 1.0405687097 -1.127915563 1.4166433593
O -0.2706201683 -1.3080515648 -0.1844571694
O 1.7759051891 -2.2476817698 -0.0456479233
O 2.9039589425 0.3597040785 0.3404144934
O 1.2104810497 2.5213684076 -0.3949747772
O -1.593069199 2.1083981746 0.084067891
O -3.0246164573 -1.8788421459 0.3009814585
H -2.4726124205 -0.8498305759 -1.4034775218
H -3.2826756026 0.0714627369 -0.107377451
H 1.8339678616 -2.2909625517 -1.0085390127
H 3.1850955907 1.2594254261 0.1287699234
H 0.488435785 3.161633611 -0.4407491337
H -1.7201021345 2.0800584 1.0407791648
H -2.3430117105 -2.5555389475 0.2020607424
*
