! pbe def2-sv(p) def2/J RI DEFGRID1 loosescf d4 GCP(DFT/SV(P)) printgap
%output
    printlevel normal
end
* xyz 0 1
C -1.947704126 -1.167721581 -0.3438751508
C -1.0395328969 -0.504345188 0.737257341
H -1.5580579113 -0.533767249 1.7019117171
C -0.7494044351 0.9852227242 0.4761335782
H -1.6438029574 1.4322951406 0.0185413349
C 0.4535339432 1.2071553622 -0.4630714916
H 0.7338182064 2.2719523192 -0.4097617887
C 1.6555777297 0.3640908421 0.0146800742
H 2.4739989893 0.4366583824 -0.7127497899
C 1.2226453395 -1.1159230398 0.1121810521
H 2.0193841012 -1.6999629885 0.5877070759
O 0.1326087297 -1.2631886604 0.9866764628
O 1.0316961604 -1.6710231839 -1.1496567301
O 2.1583762375 0.8441257424 1.2256859518
O 0.0688228907 0.8758225475 -1.7877235832
O -0.4984121853 1.569558367 1.73641675
O -2.4853357869 -0.2911307405 -1.2974067439
H -2.8110210366 -1.6171564219 0.1506413848
H -1.3791945484 -1.9763664048 -0.8193012867
H 0.4506345878 -1.0880632701 -1.6630886381
H 1.4657740295 0.7418016519 1.8979345303
H 0.7667118538 1.1480294791 -2.3946741145
H -0.398823915 2.5238090977 1.6405968195
H -1.7671890425 0.1012312593 -1.812993399
*
