! pbe def2-sv(p) def2/J RI DEFGRID1 loosescf d4 GCP(DFT/SV(P)) printgap
%output
    printlevel normal
end
* xyz 0 1
C -2.5156456245 -0.9777716777 0.3853035508
C -1.081586123 -0.4862576778 0.626785839
H -0.8987709162 -0.4133438794 1.7109832953
C -0.8188399297 0.8833570814 -0.021057613
H -0.9955169162 0.7967027261 -1.1033758872
C 0.6451035109 1.3007515293 0.1919522254
H 0.8080071502 1.4888622079 1.2643626416
C 1.5943403722 0.1874771108 -0.255028277
H 1.5816528762 0.1383062712 -1.3533240937
C 1.1410003927 -1.1767557968 0.2998831324
H 1.3160598709 -1.176942818 1.3981617296
O -0.2167658386 -1.4500354841 0.0566860377
O 1.8984798824 -2.1551964623 -0.3238667219
O 2.8786987836 0.4755263319 0.222700472
O 0.9290353703 2.4502174378 -0.5566784048
O -1.6224531825 1.899613356 0.5317069327
O -2.869382 -0.9369284646 -0.9692886463
H -3.2228848123 -0.336497844 0.9156288381
H -2.5994708787 -1.9979930725 0.7830384681
H 1.4901343809 -3.0127256463 -0.156135559
H 3.4775556647 -0.2056112537 -0.105983727
H 0.3053258462 3.1331320355 -0.2799977172
H -2.5306711205 1.7658308505 0.2389448029
H -2.2261021234 -1.4671718593 -1.4553234021
*
