! pbe def2-sv(p) def2/J RI DEFGRID1 loosescf d4 GCP(DFT/SV(P)) printgap
%output
    printlevel normal
end
* xyz 0 1
C -2.2847410868 -0.9036180471 0.7619363109
C -0.8390205605 -0.3912634586 0.7477091812
H -0.5473254829 -0.1191025037 1.7704710275
C -0.6650704578 0.8306240295 -0.1725961606
H -0.9024004329 0.5248696329 -1.2031763175
C 0.7990353083 1.3190237184 -0.136030309
H 0.8353473042 2.1798368942 0.5414955713
C 1.7454693304 0.2102177689 0.377782613
H 2.7357848779 0.3876044112 -0.0703272653
C 1.2540427012 -1.1469788007 -0.1361657007
H 1.9136768878 -1.9464307695 0.2372151363
O -0.0335677764 -1.4765758771 0.2928343984
O 1.3091940267 -1.0856078975 -1.5406547144
O 1.8385363392 0.1375323693 1.776109771
O 1.2332789617 1.7901784843 -1.3798459022
O -1.4876229241 1.8965271517 0.2286176187
O -2.7789382691 -1.1416590207 -0.5304250182
H -2.9377993814 -0.1571099186 1.217488891
H -2.3155601565 -1.818374951 1.3673933207
H 0.9829821255 -1.9204311007 -1.8966092407
H 2.1451292352 0.9888740267 2.1095116845
H 1.281585232 1.0348474023 -1.9825656007
H -2.3950133976 1.7006823943 -0.0300444738
H -2.1960763077 -1.7892983627 -0.9440461882
*
