! pbe def2-sv(p) def2/J RI DEFGRID1 loosescf d4 GCP(DFT/SV(P)) printgap
%output
    printlevel normal
end
* xyz 0 1
C 3.3440259477 -0.3200110662 0.8393493312
C 1.9606707522 -0.1699491124 0.2988549289
C 1.4522682682 1.0159751188 -0.0499843081
C 0.0892489473 1.2170292193 -0.5323026042
O -0.3693307139 2.3311553385 -0.6928580894
C -0.7597841654 -0.0164457427 -0.810722318
H -1.1963224307 0.1501400224 -1.8038269173
C 0.0678565868 -1.3021670698 -0.8811718613
C 1.1492285689 -1.4213124969 0.1900373422
C -1.9645285498 -0.0077409818 0.1615890568
C -3.0553761158 -0.9786131268 -0.2844289033
C -1.5848825063 -0.2744590592 1.6158961245
H 3.8207981282 0.6456980072 0.9828748059
H 3.9493464997 -0.9105296797 0.1513561129
H 3.3198734256 -0.8503252257 1.790907671
H 2.0371008238 1.9203554662 0.0508705613
H -0.5915016508 -2.1698754999 -0.8357373443
H 0.5640250018 -1.3223584014 -1.8555392667
H 0.7093744395 -1.6305630052 1.1679055235
H 1.803563167 -2.2640493358 -0.0487194615
H -2.3725858996 1.0080442519 0.1027121866
H -2.7169694992 -2.0103582687 -0.216322077
H -3.3553566349 -0.7805973436 -1.3108048317
H -3.9293686897 -0.8703325802 0.3538396936
H -2.426453149 -0.0345836362 2.2629322223
H -0.7406403989 0.34183063 1.9164721084
H -1.3387674339 -1.3226246526 1.7695927205
*
