! pbe def2-sv(p) def2/J RI DEFGRID1 loosescf d4 GCP(DFT/SV(P)) printgap
%output
    printlevel normal
end
* xyz 0 1
C -1.7864338963 -1.0706006861 -0.6035615592
C -1.0744075868 -0.504818726 0.6516052887
H -1.725113804 -0.6194385581 1.5247541105
C -0.7394011779 0.9945055104 0.5386823271
H -1.630945935 1.5158690074 0.1762798535
C 0.4133713706 1.2145156881 -0.4560722842
H 0.7462331923 2.2621714664 -0.3682243124
C 1.6169444671 0.3366503887 -0.0653536167
H 2.3314993128 0.3125312216 -0.9055340802
C 1.2194250717 -1.1264595704 0.2130488232
H 2.0137418233 -1.5860596952 0.834732043
O 0.075030054 -1.2836715944 0.9891395908
O 1.1638017773 -1.7810080085 -1.0249128175
O 2.2023621751 0.9298709755 1.0694230283
O -0.0635241238 0.9554607839 -1.7513675773
O -0.4526553745 1.5597686012 1.7857945496
O -2.728883101 -0.1949973963 -1.1583876647
H -2.3312354484 -1.9736147107 -0.3146325237
H -1.0335554256 -1.3352753512 -1.3517594582
H 0.8578499515 -2.6851116179 -0.8828843334
H 2.9690497094 0.4159326451 1.3480166707
H 0.6796215836 0.8597847182 -2.3574058176
H 0.4290442229 1.2692528137 2.0596364972
H -2.2426990523 0.4820496342 -1.6464289124
*
