  5
        -16.65321427
 C          0.4429333180       -0.0000569897       -0.3924566600
 F          1.0402453632        1.0759752974        0.1234286642
 F          1.0402826052       -1.0759289674        0.1234508417
 Cl        -1.2809642320       -0.0000039617        0.0429035896
 H          0.5628041290       -0.0000548050       -1.4858414782
