! r2scan-3c def2/J RI DEFGRID2 scfconv6 printgap
%output
    printlevel normal
end
* xyz 0 1
C -2.5180002976 0.1984512992 6.75844e-05
C -1.1594064734 -0.3975369947 -4.3406e-05
C -0.0195370658 0.2948262069 -0.0001223954
C 1.2864561027 -0.3494462741 -2.82328e-05
O 2.3461211557 0.2253760678 7.55098e-05
H -2.475304736 1.2841975712 -0.0003880337
H -3.0705638486 -0.1374532837 0.8775118496
H -3.0711396946 -0.1381902746 -0.8766980352
H -1.1207992484 -1.4808702907 1.51043e-05
H -0.0185230479 1.376254163 -0.0001870395
H 1.2394512777 -1.4581813053 5.43948e-05
*
