  8
        -19.45373187
 C         -0.6497700121        0.8876134865        0.4175274891
 C          0.3969806458        0.1257751545       -0.3679681761
 Cl         0.3852644957       -1.5964123383        0.0661782473
 Cl         1.9987700800        0.8190664446       -0.0123010353
 Cl        -2.2732447502        0.3528119116       -0.0777771923
 H         -0.5473631233        0.7042888203        1.4874117116
 H         -0.5746836729        1.9554913250        0.2086271486
 H          0.2374564590        0.1968448172       -1.4459455047
  8
        -19.45133090
 C         -0.8476150318        0.5913277858       -0.9515252931
 C          0.5221119387       -0.0360512692       -0.7860417645
 Cl         0.3805216901       -1.7243083232       -0.2459641740
 Cl         1.5005718960        0.8860749704        0.3778861157
 Cl        -1.7389365316        0.6045774817        0.5899223894
 H         -0.7477290809        1.6257140453       -1.2822894571
 H         -1.4376501887        0.0176914582       -1.6672517315
 H          1.0639620672       -0.0416837446       -1.7350794472
  8
        -19.44576864
 C         -1.1837990206       -0.1524114602       -0.5996967414
 C          0.3380755387       -0.3348885214       -0.6832302875
 Cl         0.7919746489       -1.9372686671       -0.0422516709
 Cl         1.2646897568        0.9071482713        0.1827021499
 Cl        -1.6975368517        1.2330943625        0.3929801340
 H         -1.5903263433        0.0140303400       -1.5972093162
 H         -1.6441062247       -1.0362607650       -0.1581665945
 H          0.6804446423       -0.3103184013       -1.7196503600
