  21
        -22.15354587
 C          2.4834023980       -0.0000154863       -0.0798178937
 C          1.0139646688       -0.0000356980        0.3321242870
 C          0.3011503467        1.2491154634       -0.1877086856
 C         -1.1682391766        1.2517354820        0.2233678424
 C         -1.8701805788        0.0000955401       -0.2937920721
 C         -1.1684052786       -1.2516886700        0.2232475664
 C          0.3010578081       -1.2491875050       -0.1876000822
 H          2.5739722282        0.0004482214       -1.1642955490
 H          2.9898676669        0.8820459765        0.3061501174
 H          2.9894822866       -0.8826566188        0.3052438967
 H          0.9585274591       -0.0000076094        1.4270926604
 H          0.7953750311        2.1434259943        0.1989544294
 H          0.3720749389        1.2741269878       -1.2779671562
 H         -1.2391521768        1.2813404388        1.3134275709
 H         -1.6613708031        2.1445303972       -0.1676219937
 H         -2.9154039523        0.0001199954        0.0231131365
 H         -1.8515448460        0.0001433301       -1.3862539371
 H         -1.2395003972       -1.2815043103        1.3132900298
 H         -1.6615545332       -2.1443613649       -0.1680071799
 H          0.7951149695       -2.1434730004        0.1993421217
 H          0.3721927867       -1.2744063616       -1.2778402839
  21
        -22.15113349
 C          1.9520369348        0.0000772127       -0.7614612153
 C          1.1122117792       -0.0001125705        0.5145147294
 C          0.2383584986        1.2536200312        0.6290347612
 C         -0.9169517244        1.2518565884       -0.3681883103
 C         -1.7706318213        0.0001025161       -0.1946420472
 C         -0.9171239566       -1.2517886451       -0.3681977053
 C          0.2382216094       -1.2537621167        0.6289877004
 H          2.5892896344        0.8816159850       -0.7915652305
 H          2.5882377549       -0.8821950711       -0.7924893139
 H          1.3294691143        0.0009339125       -1.6510491388
 H          1.8101327200       -0.0001468043        1.3614755484
 H         -0.1733885022        1.3010424681        1.6405961742
 H          0.8542494449        2.1435268396        0.4803644360
 H         -1.5293897617        2.1435942124       -0.2153043905
 H         -0.5294834102        1.2906031645       -1.3876544997
 H         -2.2124424101        0.0001373084        0.8050013591
 H         -2.5865537726        0.0001586346       -0.9209560992
 H         -1.5297182405       -2.1434067521       -0.2151853013
 H         -0.5297454631       -1.2906650574       -1.3876928309
 H         -0.1734304309       -1.3014551718        1.6405331708
 H          0.8540064111       -2.1436604417        0.4800065996
  21
        -22.14506372
 C          2.4653936720        0.0106986211        0.0719930043
 C          0.9640296946        0.0297496588        0.3436218890
 C          0.2751523572        1.1634322804       -0.4142394484
 C         -1.1833856234        1.3111948698        0.0358786184
 C         -1.7912666876       -0.0417479485        0.4259536606
 C         -1.1623400303       -1.1598745053       -0.3970603482
 C          0.3228748668       -1.3116920233       -0.0467586436
 H          2.6582747609       -0.0923338916       -0.9941648841
 H          2.9298737096        0.9324626615        0.4160123485
 H          2.9352308070       -0.8238166061        0.5883409885
 H          0.8144555893        0.1999181698        1.4151466857
 H          0.8077295066        2.1020652501       -0.2494193127
 H          0.3197345315        0.9467839578       -1.4834228016
 H         -1.2402943437        1.9897865415        0.8893207669
 H         -1.7633925364        1.7578097383       -0.7741712013
 H         -1.6147272639       -0.2420607241        1.4845122361
 H         -2.8717817236       -0.0208496658        0.2728398447
 H         -1.6827062788       -2.1019919596       -0.2145725440
 H         -1.2769993718       -0.9233050079       -1.4565753692
 H          0.4375164558       -2.0152542445        0.7804798834
 H          0.8524795181       -1.7301992455       -0.9053793844
  21
        -22.14501045
 C          2.3090431354        0.1821979712       -0.4218707578
 C          1.0824028439       -0.1035909718        0.4416027465
 C          0.2028806069        1.1496272378        0.5952096506
 C         -0.8927060856        1.1855498580       -0.4641627679
 C         -1.8811703578        0.0328081928       -0.2531152821
 C         -1.1788436175       -1.2051596770        0.3183579389
 C          0.2689805029       -1.2615957271       -0.1554503220
 H          2.8938054695       -0.7245427982       -0.5629687772
 H          2.0096861303        0.5518746232       -1.4003705564
 H          2.9449003810        0.9300576973        0.0474057609
 H          1.4314928776       -0.4008506959        1.4368360763
 H         -0.2650264984        1.1590167940        1.5816074167
 H          0.8253013066        2.0433004432        0.5207351683
 H         -1.4225861508        2.1391054927       -0.4238389377
 H         -0.4353192439        1.1101288401       -1.4520496310
 H         -2.6734509251        0.3446243009        0.4302360089
 H         -2.3523963881       -0.2145098739       -1.2064898803
 H         -1.1900976843       -1.1730522205        1.4096669112
 H         -1.7114023271       -2.1076683191        0.0128177600
 H          0.7224604686       -2.2127878397        0.1301725235
 H          0.2881541668       -1.2044154760       -1.2455782370
