! r2scan-3c def2/J RI DEFGRID2 scfconv6 printgap
%output
    printlevel normal
end
* xyz 0 1
C -3.9860552352 -0.8548889858 1.0451194238
N -3.3194215216 -0.9370666519 -0.2313077121
C -2.1504648474 -0.3437599684 -0.5626203717
O -1.682325375 -0.367602826 -1.6722882773
O -1.5728480725 0.2616785045 0.507083129
C -0.3051034208 0.8067576501 0.3091580951
C -0.174478984 2.1686717633 0.2777066332
C 1.091577414 2.7498125837 0.121599718
C 2.2000409014 1.9633755403 -0.0131024937
C 2.0948114543 0.5571912376 0.0159153209
C 0.8200560206 -0.0450997721 0.1878018024
C 0.7260819363 -1.4508480977 0.237629344
C 1.8424732278 -2.2277830023 0.10426804
C 3.1014156629 -1.6367950207 -0.079161781
C 3.2246105192 -0.2764527626 -0.1183611235
H -4.7728121515 -0.0950380758 1.0361325917
H -3.2560326578 -0.5952727008 1.8075209946
H -4.429924925 -1.8209494042 1.2863039493
H -3.8369835808 -1.3151930998 -1.0096154738
H -1.0529174793 2.7888961194 0.3706914905
H 1.1750558467 3.8260082136 0.0987077122
H 3.1762665418 2.4069900116 -0.1451515729
H -0.2410643325 -1.9095709321 0.3819167153
H 1.7617027925 -3.304237623 0.1397877777
H 3.97218956 -2.2670787165 -0.1860878105
H 4.1927365588 0.184296376 -0.2538404528
*
