! pbe def2-sv(p) def2/J RI DEFGRID1 loosescf d4 GCP(DFT/SV(P)) printgap
%output
    printlevel normal
end
* xyz 0 1
C -2.3236062387 -0.9851135935 -0.3380161247
C -0.9399323673 -0.5347473802 0.1398198335
H -0.8634430173 -0.7410201492 1.2205766935
C -0.7313068886 0.9815487728 -0.0821209024
H -1.3415990254 1.3334374132 -0.922316743
C 0.7498310497 1.2569761598 -0.4453220096
H 0.9642925734 2.3076813426 -0.2140473726
C 1.649574277 0.338452057 0.404635219
H 2.7005176673 0.4902604724 0.1319536126
C 1.3177166218 -1.1341659522 0.0811903327
H 1.3142058183 -1.697911391 1.0370160976
O 0.0561394755 -1.275283306 -0.5379446036
O 2.274281014 -1.6145729399 -0.7941510536
O 1.4324041099 0.556440408 1.7843660345
O 1.0022161341 1.1030876407 -1.8101607945
O -1.1521335056 1.7200415899 1.0360113615
O -3.3389424585 -0.4267878149 0.4480486129
H -2.4115055635 -2.0697166188 -0.2424666104
H -2.4428715148 -0.7174165635 -1.3982654345
H 1.9868662254 -2.4761318063 -1.1206844214
H 1.9116350259 1.3479185685 2.0534029667
H 0.9120630757 0.1664990571 -2.0338322784
H -0.6017231501 1.4573025303 1.787869591
H -3.1677618764 0.5184098707 0.5558038743
*
