! pbe def2-sv(p) def2/J RI DEFGRID1 loosescf d4 GCP(DFT/SV(P)) printgap
%output
    printlevel normal
end
* xyz 0 1
C -2.2378599801 0.2721604561 -3.31417e-05
C -1.3398898963 1.3292047921 2.10912e-05
C 0.0180016503 1.0791937351 4.71121e-05
C 0.4891286972 -0.2346866686 4.9667e-05
C -0.4202059245 -1.2918300856 -1.20738e-05
C -1.7780310393 -1.0363126442 -5.84643e-05
C 1.9333515885 -0.494152555 0.0001268009
O 2.7945644352 0.3480636049 -0.0001413758
H -3.300057988 0.467862677 -1.36733e-05
H -1.7033257064 2.3460243864 0.000103418
H 0.7377319083 1.8841909197 0.0001127609
H -0.0556513137 -2.3093163767 -3.1017e-05
H -2.4822605309 -1.8550627473 -8.34776e-05
H 2.1913949422 -1.5730802934 0.0004760137
*
