! pbe def2-sv(p) def2/J RI DEFGRID1 loosescf d4 GCP(DFT/SV(P)) printgap
%output
    printlevel normal
end
* xyz 0 1
C -2.4425343146 -0.3990753101 1.3608948383
C -2.0489755275 -0.4686242721 -0.1190575284
H -2.9764866574 -0.5662686057 -0.696011139
C -1.1345387824 -1.6472641479 -0.437456986
C 0.2621790016 -1.5260030199 0.186205183
C 0.7683596394 -0.0757834069 0.2657427638
H 0.4700984271 0.352847584 1.232729087
C 0.0750496411 0.7669518594 -0.8150073533
C -1.4068602781 0.8408841633 -0.5371123404
O -2.0329788429 1.868545633 -0.6213216521
C 2.2809010402 0.0341963607 0.225695402
C 3.0926861375 -0.9753497433 0.50040238
C 2.8429812393 1.3977167475 -0.0586119924
H -3.0601517861 0.4784327251 1.5363756542
H -3.0087142324 -1.2859743212 1.6364820868
H -1.5654910559 -0.3385362155 1.9992695732
H -1.601898905 -2.5723868283 -0.0944483915
H -1.0396472472 -1.7199465815 -1.5233483728
H 0.2613170884 -1.9609718102 1.1863879739
H 0.9475657456 -2.1129286913 -0.4268476642
H 0.4581418421 1.7856017058 -0.8504021348
H 0.2283986908 0.3086067238 -1.7949988424
H 4.1614098898 -0.8409549739 0.5027086367
H 2.7518808627 -1.9660994685 0.7400045579
H 2.3300150751 2.156925661 0.5296673095
H 3.901709258 1.4279116698 0.1850405942
H 2.7327116381 1.6500268609 -1.1125517779
*
