! r2scan-3c def2/J RI DEFGRID2 scfconv6 printgap
%output
    printlevel normal
end
* xyz 0 1
C -2.6772135939 -0.8726367731 0.0163782292
C -1.6639660077 0.1135224828 -0.5547990089
C -0.5892746452 0.505418812 0.4735041953
C 0.8632717354 0.1605604968 0.0962780032
C 1.2839328548 0.8996383084 -1.1759492943
C 1.7708807459 0.6122579519 1.2460195035
C 1.0319449909 -1.3481184363 -0.0950880531
H -3.4246762908 -1.1295695909 -0.7317418054
H -2.1820170111 -1.7877068306 0.3338065185
H -3.1886596886 -0.4424531738 0.8751213286
H -1.2044944 -0.3343494633 -1.4358475709
H -2.1938137038 1.0062442563 -0.8926315286
H -0.8139110174 0.010725297 1.4210285653
H -0.6395875219 1.5807362836 0.6574221567
H 2.3274783968 0.6928526454 -1.4043064001
H 0.6849854852 0.5934165347 -2.0296153638
H 1.1682814379 1.973652633 -1.0466478348
H 2.8112388652 0.3868938008 1.0217002278
H 1.5033857165 0.1037598724 2.1699242518
H 1.6815172197 1.6843878535 1.4081184634
H 0.7481250325 -1.8796470883 0.8107109584
H 0.4189675376 -1.715426149 -0.9136814555
H 2.069894597 -1.5853575201 -0.3189559856
*
