! r2scan-3c def2/J RI DEFGRID2 scfconv6 printgap
%output
    printlevel normal
end
* xyz 0 1
C -2.0998823033 1.3111686623 0.0624378257
C -1.4284287465 -0.0377556538 -0.1917181819
C -2.4315313522 -1.1630704548 0.0611083045
C -0.1797755223 -0.2191918633 0.6914890835
C 1.1851673633 -0.0211948622 0.0051221573
C 1.4198379505 -1.1056152773 -1.0494849239
C 1.2930414445 1.3595928237 -0.6439685449
C 2.2727509066 -0.1435141976 1.0788191331
H -1.4074877898 2.1310943539 -0.1067725104
H -2.9531714252 1.4427451975 -0.6003384619
H -2.4558668228 1.3677804713 1.0894967941
H -1.1403435143 -0.0810779248 -1.2458288983
H -1.993492987 -2.1299519135 -0.1770246399
H -2.73856771 -1.1704628362 1.1051913784
H -3.3190273858 -1.030002573 -0.5544211982
H -0.2436150689 0.4731209692 1.5339668327
H -0.1870747921 -1.2286424637 1.108898909
H 2.4051237861 -0.9897809386 -1.4961322289
H 0.6818438053 -1.05131425 -1.8455592954
H 1.3631753576 -2.094123137 -0.5986998972
H 1.1226450935 2.1418167197 0.0926028437
H 0.5702935264 1.474837686 -1.4471939272
H 2.2875706127 1.4991107095 -1.0632807707
H 3.2604196287 -0.0355457168 0.6357382286
H 2.2227393339 -1.1139650975 1.5680275157
H 2.1532718457 0.6277026084 1.8368188643
*
