  17
        -29.50957064
 C         -0.2012106562       -2.3173013561       -0.1285172549
 C          0.4969555597       -1.0018362572       -0.0478527387
 C          1.8891934611       -0.9646555911       -0.0455598483
 C          2.5901025253        0.2244828093        0.0218895165
 C          1.9111811495        1.4328201911        0.0797889197
 C          0.5332941244        1.4309815722        0.0694175799
 C         -0.1697227717        0.2288428996        0.0119640941
 N         -1.6063650138        0.3267842251        0.0140813846
 O         -2.0903239972        1.4039664995       -0.2707975641
 O         -2.2595545653       -0.6539171676        0.3036314320
 H         -0.7017877244       -2.5371637086        0.8134708801
 H         -0.9719013005       -2.3100725956       -0.8969893706
 H          0.5111187868       -3.1099460700       -0.3436995047
 H          2.4308460243       -1.8975023308       -0.0973078496
 H          3.6695182026        0.2102928662        0.0274401608
 H          2.4522896395        2.3642928314        0.1322609715
 H         -0.0279926675        2.3521440753        0.1111372755
  17
        -29.50946028
 C         -0.1891439926       -2.3104373679       -0.2867316704
 C          0.4976160635       -0.9976900422       -0.1204496111
 C          1.8903370106       -0.9590728260       -0.1086680400
 C          2.5918777217        0.2216017637        0.0410926544
 C          1.9119685985        1.4222259432        0.1855352415
 C          0.5347554281        1.4190746899        0.1775795963
 C         -0.1718442077        0.2257715514        0.0269624149
 N         -1.6089224902        0.3287289634        0.0323634248
 O         -2.2725475487       -0.6816762720       -0.0754059922
 O         -2.0897583623        1.4389024251        0.1465737903
 H         -0.8284639678       -2.5227680221        0.5686732504
 H         -0.8366411159       -2.3006227072       -1.1620314901
 H          0.5422887365       -3.1079215312       -0.3923267814
 H          2.4324949213       -1.8863551104       -0.2206034729
 H          3.6713103166        0.2068598711        0.0451724330
 H          2.4519100231        2.3484236947        0.3030339921
 H         -0.0259625753        2.3348187267        0.2877254801
  17
        -29.50790796
 C         -0.1771840803       -2.2902249766       -0.4922640515
 C          0.4949988145       -0.9784988822       -0.2366738188
 C          1.8883938673       -0.9412954541       -0.2129621626
 C          2.5858355183        0.2183213639        0.0626000033
 C          1.9021194919        1.3916916254        0.3467835479
 C          0.5241384620        1.3840573727        0.3458554333
 C         -0.1740684626        0.2155080460        0.0452886013
 N         -1.6116718598        0.3283911874        0.0545251983
 O         -2.2553191402       -0.3299118316       -0.7355963982
 O         -2.0944816946        1.1064114192        0.8501015258
 H         -0.0036601902       -2.9548646465        0.3544101696
 H         -1.2452976437       -2.1880765594       -0.6476927736
 H          0.2557435098       -2.7583041642       -1.3741012601
 H          2.4287736036       -1.8536775568       -0.4179328887
 H          3.6652760093        0.2087505781        0.0606415184
 H          2.4394535439        2.3004837150        0.5670890171
 H         -0.0394278230        2.2780245407        0.5669155427
