! pbe def2-sv(p) def2/J RI DEFGRID1 loosescf d4 GCP(DFT/SV(P)) printgap
%output
    printlevel normal
end
* xyz 0 1
C -2.9452056841 0.7288865809 0.6813552922
O -1.7940164932 0.7330737522 -0.1494048016
C -1.0216616727 -0.3633176576 -0.087622004
O -1.2847047465 -1.3031365024 0.6159677209
C 0.1508508746 -0.2969102016 -1.0510217607
C 1.2060635769 -1.3309161733 -0.6552584108
C 1.759234821 -1.0419772222 0.7466616479
C 1.7118957108 0.4544497603 1.0690948824
C 1.9535291646 1.2713671616 -0.1941811935
C 0.7786365058 1.102760435 -1.1646219932
H -3.4538742564 1.6725846338 0.5017023807
H -2.6562918893 0.6421914154 1.7309995589
H -3.5935080594 -0.1121438815 0.4270106613
H -0.276815184 -0.57018733 -2.0237872855
H 0.7679712262 -2.328871867 -0.6772893861
H 2.0077888917 -1.2975817625 -1.3945777752
H 1.1756412909 -1.587527905 1.4881541337
H 2.7885270903 -1.4010840909 0.8034510314
H 0.7339800322 0.7177301602 1.4782447977
H 2.458962813 0.6940099361 1.8277699772
H 2.0761089609 2.3274767045 0.0516931254
H 2.8805524616 0.9325720755 -0.6607733583
H 0.0141415898 1.8517400943 -0.9593149695
H 1.1270643286 1.2597486285 -2.1868861919
*
