! pbe def2-sv(p) def2/J RI DEFGRID1 loosescf d4 GCP(DFT/SV(P)) printgap
%output
    printlevel normal
end
* xyz 0 1
C -2.3653728818 0.1123584797 0.1438568072
C -0.9220339048 0.4188271455 -0.237792567
C 0.0025334346 -0.717383117 0.0828452677
C 1.3222082435 -0.6179499664 0.1368544991
C 2.0793381643 0.649924861 -0.1108256337
H -3.0121509862 0.953495762 -0.096393813
H -2.4419058212 -0.0854006051 1.211000619
H -2.7261331291 -0.7617564966 -0.3942627286
H -0.8682705759 0.632257908 -1.3111352599
H -0.5880757854 1.3199355915 0.2835392185
H -0.4713565368 -1.6714824909 0.268638721
H 1.9133838312 -1.4906958369 0.3769518676
H 1.7732378731 1.1034155584 -1.0528842297
H 3.1492330088 0.4644207373 -0.144618948
H 1.8816620194 1.3736584827 0.6811460965
*
