! r2scan-3c def2/J RI DEFGRID2 scfconv6 printgap
%output
    printlevel normal
end
* xyz 0 1
C -2.5306814032 0.8715419312 0.8810979568
C -1.4505620965 0.3638679874 -0.0778270474
C -1.9734587849 -0.8750257204 -0.8011552287
C -0.1671933614 0.1104833257 0.7273982535
C 1.1755825826 -0.0676498611 -0.0132975704
C 1.3205756896 -1.4587658066 -0.6353400562
C 1.3653950168 0.9981449147 -1.0943338334
C 2.2878016556 0.0944587132 1.0328825851
H -2.7405079794 0.125330867 1.6448442636
H -2.2133436279 1.787447021 1.3750529324
H -3.4533943657 1.0785550314 0.3432508881
H -1.2649450223 1.1496205609 -0.8156099357
H -2.969738808 -0.683207062 -1.1955445851
H -1.3367847693 -1.1517898598 -1.6354306827
H -2.0345506932 -1.7188353191 -0.1172677782
H -0.0440380977 0.9686540939 1.393947515
H -0.3271697959 -0.7651480554 1.3620068089
H 1.1110864973 -2.2324713195 0.0997970765
H 2.3379282611 -1.5990620853 -0.9962097875
H 0.6497662335 -1.5935673091 -1.4773345911
H 0.6776373815 0.8452109278 -1.9219633749
H 2.3787055193 0.9531346602 -1.4880282405
H 1.2023674836 1.9927369868 -0.6850466537
H 3.2647911331 -0.0614621808 0.5804097656
H 2.1649226144 -0.6292021549 1.8359361903
H 2.2700395056 1.0924702985 1.4657045387
*
