! pbe def2-sv(p) def2/J RI DEFGRID1 loosescf d4 GCP(DFT/SV(P)) printgap
%output
    printlevel normal
end
* xyz 0 1
C -2.4618898018 -0.8474129103 -0.0419548469
C -1.0912221385 -0.5469771054 0.57700524
H -1.0834241933 -0.8735833761 1.6305188007
C -0.7544432329 0.9677091889 0.5480310615
H -1.6399680492 1.5119834767 0.202050204
C 0.3949307218 1.2300600541 -0.4389156374
H 0.694722209 2.2847612366 -0.3388853029
C 1.6151546217 0.36598882 -0.0608374216
H 2.3044989895 0.3232386951 -0.918058172
C 1.1694585692 -1.0853140592 0.2448639641
H 1.255149673 -1.2498476151 1.3454841338
O -0.1479472065 -1.3226082031 -0.1479573206
O 1.9953211968 -1.9636375895 -0.4424382471
O 2.2409295396 0.9651289886 1.0508624587
O -0.0603554149 0.9553261962 -1.7377624572
O -0.4500317845 1.4635657396 1.8224290365
O -2.7038042619 -0.1366301875 -1.2216372447
H -3.2491814704 -0.5680537577 0.6627213519
H -2.5119490221 -1.9313057921 -0.2245038798
H 1.4771912346 -2.7506803625 -0.6501010561
H 3.0482487328 0.480250021 1.2564104241
H 0.6487947818 1.1184135549 -2.3695233983
H 0.4965551187 1.3434026227 1.9887722261
H -1.873940296 -0.0734530667 -1.7155172818
*
