! pbe def2-sv(p) def2/J RI DEFGRID1 loosescf d4 GCP(DFT/SV(P)) printgap
%output
    printlevel normal
end
* xyz 0 1
C -1.1837990206 -0.1524114602 -0.5996967414
C 0.3380755387 -0.3348885214 -0.6832302875
Cl 0.7919746489 -1.9372686671 -0.0422516709
Cl 1.2646897568 0.9071482713 0.1827021499
Cl -1.6975368517 1.2330943625 0.392980134
H -1.5903263433 0.01403034 -1.5972093162
H -1.6441062247 -1.036260765 -0.1581665945
H 0.6804446423 -0.3103184013 -1.71965036
*
