! pbe def2-sv(p) def2/J RI DEFGRID1 loosescf d4 GCP(DFT/SV(P)) printgap
%output
    printlevel normal
end
* xyz 0 1
C -3.4979539435 -0.3807498585 -0.4905056731
O -2.1163203926 -0.2266216892 -0.78767759
C -1.3091493051 0.1481297928 0.213866092
O -1.6897099769 0.3647935273 1.3339739424
C 0.1286898675 0.2075197231 -0.2551475296
C 0.7635825544 -1.1704507344 -0.0242517482
C 2.1648888387 -1.2187642625 -0.643236093
C 2.8701881538 0.1401345341 -0.5518746934
C 2.3861098723 0.9060525397 0.6741673657
C 0.9107048335 1.2832424028 0.5114009109
H -4.0257821852 0.5488910108 -0.7113805639
H -3.6285853859 -0.6270201914 0.5647720548
H -3.8731546617 -1.1820536484 -1.1237533226
H 0.1205340629 0.4073914608 -1.3296163236
H 0.8131536262 -1.350095236 1.0507098692
H 0.1372164837 -1.9488520533 -0.4637232287
H 2.7511669671 -1.9781485251 -0.1229678988
H 2.0947044405 -1.5195491496 -1.6899965069
H 3.9504698214 -0.00598233 -0.5060484111
H 2.6575247977 0.7340204656 -1.442882174
H 2.5236595307 0.2840073842 1.5597360599
H 2.9795818893 1.8108576181 0.813483057
H 0.4512689151 1.4134692072 1.4929748806
H 0.8276683915 2.2312975341 -0.0232610979
*
