! pbe def2-sv(p) def2/J RI DEFGRID1 loosescf d4 GCP(DFT/SV(P)) printgap
%output
    printlevel normal
end
* xyz 0 1
C -2.8639701755 -0.6899362977 0.4052831759
C -1.7416113853 -0.3719222937 -0.588817608
H -2.2002029515 -0.2324343929 -1.574348789
C -0.7038280115 -1.4951057377 -0.6746466996
C 0.1721450735 -1.5892713196 0.5696071151
C 0.8524747787 -0.2676352343 0.9585015479
H 1.2233358628 -0.3928476567 1.9829769821
C -0.1670615093 0.8834076738 0.9864172195
C -1.0932030868 0.9424896106 -0.2014860372
O -1.3521153374 1.9759153263 -0.7706518465
C 2.0649710062 0.0619160853 0.1158889049
C 3.277067834 -0.0290626685 0.6436683702
C 1.8823090899 0.4890242453 -1.3092442095
H -3.566020747 0.1395307822 0.4556490103
H -3.402688231 -1.576978218 0.0789208731
H -2.4734624309 -0.8723795049 1.4025682609
H -1.2234109308 -2.4461610273 -0.817613284
H -0.0823440928 -1.3306461528 -1.5542786088
H -0.439956893 -1.9190988584 1.4120309223
H 0.9416837526 -2.3481200642 0.4116924461
H -0.8068266303 0.7569781661 1.8643779784
H 0.3472207412 1.8416030042 1.0858741469
H 4.1621069371 0.1984761346 0.073723132
H 3.4395861801 -0.3400879902 1.6621051958
H 1.8049335147 -0.3818199863 -1.960503136
H 0.987058052 1.0902814229 -1.4367788255
H 2.7405589875 1.0694029433 -1.6398749109
*
