! pbe def2-sv(p) def2/J RI DEFGRID1 loosescf d4 GCP(DFT/SV(P)) printgap
%output
    printlevel normal
end
* xyz 0 1
C -2.6156015031 0.7440244882 -1.2931482462
C -2.3577085765 0.0559049651 0.0460578485
H -3.3364601289 -0.182309653 0.4774274709
C -1.61954556 0.9628348003 1.0337479155
C -0.219087229 1.3502106079 0.5505832526
C 0.5026423857 0.1937840165 -0.1768211252
H 0.2814888143 0.2579487245 -1.2472520931
C -0.1152854481 -1.0971318153 0.3192027556
O 0.4588740835 -1.9180704832 0.988626881
C -1.5630988836 -1.2567271305 -0.0935748774
C 2.0287970995 0.2313251557 -0.0018438327
C 2.684671299 -0.866344566 -0.839437398
C 2.6020668526 1.5879007146 -0.4085839392
H -1.6919409809 0.9905372552 -1.8076312566
H -3.2052857766 0.0978681102 -1.9402024688
H -3.1735165144 1.6648979191 -1.136098369
H -2.2019259279 1.8677751337 1.2177070684
H -1.5352136213 0.4250453598 1.981557129
H -0.2809606843 2.2117351359 -0.1152109013
H 0.3719283711 1.6438433351 1.4196159382
H -1.5725979714 -1.5998782317 -1.1308550441
H -2.0018756097 -2.0474658641 0.5175426283
H 2.2561268892 0.0447444856 1.0526964322
H 3.7641654167 -0.8422245585 -0.7105576172
H 2.4633987744 -0.7236056515 -1.8961838417
H 2.3285168607 -1.8463724502 -0.5364798674
H 2.2318091424 2.389522685 0.2243458888
H 2.3415638442 1.8144114296 -1.4410478975
H 3.6865241126 1.5700467836 -0.3288405748
*
