! pbe def2-sv(p) def2/J RI DEFGRID1 loosescf d4 GCP(DFT/SV(P)) printgap
%output
    printlevel normal
end
* xyz 0 1
C -2.4676961044 -0.818170873 0.0444420092
C -1.0819341499 -0.5042206783 0.6084257346
H -1.0551780125 -0.7989911081 1.6717041253
C -0.7464814545 1.0110150553 0.532945976
H -1.629222769 1.5563507841 0.1844998098
C 0.4017126991 1.2410355475 -0.4671077516
H 0.703781749 2.2962092214 -0.4057957674
C 1.6150695218 0.3728610855 -0.0472128213
H 2.3347648546 0.3437942951 -0.8740774483
C 1.1737403866 -1.0773321783 0.2301602452
H 1.3015696704 -1.2684020198 1.3188991565
O -0.1680284319 -1.3013215098 -0.1199738545
O 1.9531960174 -1.9373882981 -0.521291693
O 2.2093307561 0.8690663425 1.1375728708
O 0.0263608539 1.0157016339 -1.7908704707
O -0.4402649918 1.5318565651 1.7991052066
O -2.5309699173 -0.3303403352 -1.2757690212
H -3.2244477972 -0.3401996129 0.6800054232
H -2.6117612294 -1.9057829162 0.0633348312
H 1.4789154876 -2.7730728938 -0.6087781702
H 2.6821035886 1.6834982368 0.932424307
H -0.5564352767 0.2421136209 -1.8237249701
H 0.4674167069 1.2699211019 2.0239089281
H -3.3780910697 -0.5693680679 -1.6648213369
*
