! pbe def2-sv(p) def2/J RI DEFGRID1 loosescf d4 GCP(DFT/SV(P)) printgap
%output
    printlevel normal
end
* xyz 0 1
C -2.4710671007 -0.5249100721 -0.1531876819
C -1.0376954991 -0.1903729187 0.2702579859
H -0.9559251131 -0.3011187602 1.3629302332
C -0.635418319 1.2508383758 -0.1107933725
H -1.2039353367 1.5690225249 -0.9935432736
C 0.8743226147 1.2995832249 -0.4450673367
H 1.2328607047 2.3153068879 -0.2166053855
C 1.6158434714 0.2963085162 0.4449168268
H 2.6906915257 0.3405355545 0.2200275928
C 1.1348921008 -1.1338434299 0.082166636
H 1.2349790405 -1.7846796679 0.9701097828
O -0.2002172399 -1.140155081 -0.3649095565
O 1.9228816475 -1.6889159567 -0.9020507226
O 1.366050538 0.6450647702 1.7877005591
O 1.1632085697 0.9563586149 -1.7788845767
O -0.9566324013 2.1640760493 0.8982521194
O -2.8471727072 -1.8036489029 0.2727864013
H -2.5405668304 -0.4432187808 -1.2474431198
H -3.1610314839 0.1837665471 0.3081356043
H 1.7919943981 -1.1590514017 -1.7031765163
H 1.8877378081 0.0739418375 2.3624180355
H 0.6750776161 1.5449387106 -2.3651958974
H -0.4108519099 1.9553860821 1.6695105627
H -2.1681486894 -2.4168755975 -0.0366266568
*
