! pbe def2-sv(p) def2/J RI DEFGRID1 loosescf d4 GCP(DFT/SV(P)) printgap
%output
    printlevel normal
end
* xyz 0 1
C 1.1030633511 -1.4988644046 0.397447463
C 0.7471779921 -0.0148007638 0.398129198
C 1.5755930674 0.7486730474 -0.6413655773
C -0.7255876982 0.256374928 0.1275422599
O -1.3278166273 1.1014183481 0.7414270218
C -1.3765162673 -0.5635636785 -0.955822691
H 0.481622169 -2.0445933497 1.1039686451
H 0.9780492418 -1.9348703058 -0.590382026
H 2.1426815439 -1.6244871384 0.6923741888
H 0.9671761985 0.4078707725 1.3844427592
H 1.4117275979 0.3476327271 -1.639250877
H 2.6340028429 0.6612205039 -0.4068859974
H 1.307232673 1.8025315699 -0.6417228616
H -0.7421290462 -0.6211540662 -1.8357277553
H -2.3368124477 -0.1275570162 -1.2186127535
H -1.5405018881 -1.5734775862 -0.584824575
*
