! r2scan-3c def2/J RI DEFGRID2 scfconv6 printgap
%output
    printlevel normal
end
* xyz 0 1
C -2.9803463735 1.2428490934 0.0108186764
C -1.7441514657 0.3935854636 -0.0076154195
C -1.8351196526 -0.9869624494 -0.006540495
C -0.6876637953 -1.7642255881 -0.0019953597
C 0.5652238638 -1.1798544962 0.0013947801
C 0.6734606701 0.2231262564 -7.58426e-05
C -0.4840797085 0.9847186725 -0.0040607789
O 1.9422112933 0.7206750016 0.001351196
C 2.1127298325 2.11390686 -0.0032525733
O 1.7143594103 -1.9137348171 0.0045524296
H -3.3730726879 1.3108683011 1.025918887
H -2.7678319512 2.2502315583 -0.3384213214
H -3.7547211283 0.8087701542 -0.6179231073
H -2.8029320055 -1.4652766366 -0.0095429775
H -0.7659681192 -2.8436727877 -0.0022745015
H -0.4206856464 2.0617633546 -0.0055018406
H 1.6730807019 2.5787267074 0.8860368927
H 1.6826396293 2.5712412236 -0.9011598295
H 3.1892727323 2.2778390162 0.0018611077
H 1.4910287204 -2.8521905797 0.0022749499
*
