! pbe def2-sv(p) def2/J RI DEFGRID1 loosescf d4 GCP(DFT/SV(P)) printgap
%output
    printlevel normal
end
* xyz 0 1
C -1.6889130551 -1.0492413496 -0.7334295444
C -1.0639517872 -0.5187766302 0.5651075226
H -1.7929963458 -0.6717418866 1.3732505762
C -0.7514020366 0.9813287585 0.4722070516
H -1.6424937603 1.4839097332 0.0625410146
C 0.4597316975 1.257472642 -0.4391305987
H 0.7756243123 2.2971811934 -0.2483605715
C 1.6424160675 0.3628249821 -0.0313596734
H 2.3727635297 0.3597081583 -0.8459134933
C 1.2352104917 -1.1064297832 0.2097615256
H 2.016660856 -1.5569134436 0.8449981863
O 0.0657241513 -1.2644837544 0.9756600948
O 1.1596167273 -1.7624489627 -1.0190144534
O 2.2789827304 0.8815449539 1.1020111949
O 0.1763165758 1.0735425387 -1.7992809579
O -0.4235131507 1.5172713643 1.7385608552
O -2.9073872535 -0.3590783528 -0.9352510885
H -1.8676699657 -2.1264571742 -0.6104705085
H -0.999657471 -0.8906277353 -1.5690502529
H 0.9534438613 -2.6918212634 -0.8630720972
H 1.5931838089 1.0772437598 1.7591396975
H -0.5579361074 1.648764176 -2.0446758393
H -1.1003111423 1.2590420488 2.3747305865
H -3.3133531024 -0.6911699789 -1.7424761908
*
