! r2scan-3c def2/J RI DEFGRID2 scfconv6 printgap
%output
    printlevel normal
end
* xyz 0 1
C 2.0832128621 0.0753144825 -0.1181762255
C 0.7546317163 0.6844802985 0.3196588101
C -0.4594306587 0.005011442 -0.3297794688
H -0.3210668194 0.0084367676 -1.4255905564
C -1.7490088787 0.7448696579 0.0093733039
O -0.6199768179 -1.3275341536 0.1152441174
H 2.9115085794 0.6374722039 0.30634777
H 2.1754388552 0.0970303407 -1.2028046835
H 2.1766777487 -0.9563837542 0.2175668543
H 0.7381818887 1.7418063371 0.0505896117
H 0.6549943784 0.60816843 1.4043464001
H -2.5943067781 0.219600955 -0.4258925969
H -1.8810951728 0.7741175135 1.0875625031
H -1.7185546016 1.7592225797 -0.3780447667
H 0.1992013366 -1.8067916127 -0.0462698483
*
