! r2scan-3c def2/J RI DEFGRID2 scfconv6 printgap
%output
    printlevel normal
end
* xyz 0 1
C -1.0884684352 -1.8882858759 -0.0002605895
C -0.0102698813 -0.8583408651 -0.0001469182
C 1.3244938357 -1.2458908484 0.0001236917
C 2.3476694126 -0.3157198622 0.000233601
C 2.0556389961 1.0402888287 6.23777e-05
C 0.7386600167 1.4474552482 -0.0001193258
C -0.3047062117 0.5170599619 -0.0002153565
C -1.6755921412 1.0312505061 -0.0002094187
O -2.6976551108 0.3907945 0.000507956
H -1.7281652454 -1.7675639446 0.8726180145
H -1.7283961845 -1.7670926393 -0.872913481
H -0.6662475793 -2.8904228019 -0.0005750144
H 1.5643183515 -2.2996645499 0.0002759022
H 3.3757036462 -0.6470001742 0.0004285617
H 2.8520306488 1.769069324 -5.10215e-05
H 0.498822379 2.501616723 -0.0004453821
H -1.712966902 2.1411526847 -0.0010618377
*
