! pbe def2-sv(p) def2/J RI DEFGRID1 loosescf d4 GCP(DFT/SV(P)) printgap
%output
    printlevel normal
end
* xyz 0 1
C -4.7749082743 -0.9521126483 0.0042256397
N -3.3389726867 -1.0476389083 0.0600981773
C -2.5346235886 0.0371591441 -0.0129834139
O -2.923748933 1.1706639412 -0.1249765099
O -1.2463259485 -0.3862478355 0.0589250146
C -0.1396407877 0.4459107572 0.0304434567
C -0.17852806 1.8152930174 0.0354442179
C 1.0168216279 2.55025541 0.015655386
C 2.2291463527 1.9244764009 -0.004932726
C 2.3036149161 0.5156552647 -0.0073240706
C 1.1061474531 -0.2445429153 0.0095812247
C 1.1905514548 -1.6514554454 0.0060204423
C 2.4048688206 -2.2795857662 -0.0122116758
C 3.5900932325 -1.5303058288 -0.0276581264
C 3.5389848949 -0.164646188 -0.0257106344
H -5.0278041693 0.1037629868 -0.0740076374
H -5.2245804602 -1.3660587035 0.9087966182
H -5.1660171706 -1.4823564762 -0.8664593908
H -2.9107162045 -1.9547980271 0.1464850183
H -1.121633859 2.3344737627 0.0499600728
H 0.9572802167 3.6283517652 0.0181723482
H 3.1466598859 2.4944102476 -0.0192598576
H 0.2761966746 -2.2243009031 0.0179723184
H 2.4585272094 -3.3585148021 -0.0147263121
H 4.5416216584 -2.0415855407 -0.0414490386
H 4.4481529703 0.4192849165 -0.0378817336
*
