! r2scan-3c def2/J RI DEFGRID2 scfconv6 printgap
%output
    printlevel normal
end
* xyz 0 1
C -1.7356555167 -0.8183802267 -0.0232394025
C -0.4941478951 0.0075299415 -0.3471131682
C -0.676440222 1.4497282898 0.1250766164
C 0.7396853968 -0.6354103104 0.3030458345
O 1.9577876624 -0.0636970692 -0.1072119499
H -1.8994511724 -0.8491481087 1.0520914253
H -1.6243245212 -1.8384507859 -0.38273281
H -2.6145413713 -0.3825096653 -0.492120298
H -0.3377200642 0.0088907137 -1.431188554
H -1.5745393627 1.8775720947 -0.3141693344
H 0.165864763 2.0733689151 -0.1698879911
H -0.7754673649 1.4853332658 1.2089225045
H 0.6417707595 -0.5880868497 1.3984712217
H 0.8047636985 -1.686324266 0.0108424384
H 1.9542965446 0.8691576565 0.1332180107
*
