! pbe def2-sv(p) def2/J RI DEFGRID1 loosescf d4 GCP(DFT/SV(P)) printgap
%output
    printlevel normal
end
* xyz 0 1
C -2.249971721 -0.9964261602 -0.3611173536
C -1.1768421634 -0.1998177569 0.3911740367
H -1.6359409744 0.2509603649 1.2790417931
C -0.5784409277 0.915576229 -0.4674366978
H -0.4079968034 0.5477734312 -1.4938835178
C 0.7738978291 1.3268631923 0.1424733193
H 0.618593805 1.5677918515 1.2023484129
C 1.7637260836 0.1602293769 0.0179949813
H 2.2240364942 0.1708112205 -0.9768580038
C 1.0036099112 -1.1850925601 0.1430278338
H 1.6315771745 -1.8849723869 0.718287773
O -0.172040938 -1.086054115 0.8983406902
O 0.7782932769 -1.6590900003 -1.1494151135
O 2.827611184 0.247697287 0.921464789
O 1.2319271539 2.5218511585 -0.4364979185
O -1.4619523419 2.0028807558 -0.4921034275
O -2.7918119025 -2.0080510972 0.446281153
H -1.8138208073 -1.4245436543 -1.27620194
H -3.0637444736 -0.3244431601 -0.6389081811
H 0.3598441406 -2.5283020888 -1.1068740437
H 2.4824833735 0.3068797492 1.8205508673
H 1.5838693223 2.3373672225 -1.3157940813
H -0.923259486 2.8059299781 -0.5633145506
H -2.0664757894 -2.3847869932 0.9616554438
*
