! pbe def2-sv(p) def2/J RI DEFGRID1 loosescf d4 GCP(DFT/SV(P)) printgap
%output
    printlevel normal
end
* xyz 0 1
C -2.522926692 -0.6418842942 -0.0968909636
C -1.1864298582 -0.4386168569 0.6334801708
H -1.2876891618 -0.757338602 1.6835254821
C -0.7087131727 1.0406729573 0.6621201658
H -1.5734690202 1.6885714745 0.4720759593
C 0.3547161786 1.2907203463 -0.4133423561
H 0.7564733105 2.3043785091 -0.2769162959
C 1.5447877614 0.3255329727 -0.1798125731
H 2.0607683118 0.1839992021 -1.1373947715
C 1.0649937333 -1.05629583 0.3140082168
H 1.1512831889 -1.0878397826 1.4233585644
O -0.2726538609 -1.2973802567 -0.0367568995
O 1.8544172983 -2.0336949689 -0.269202904
O 2.3901334846 0.9227531256 0.7803071975
O -0.1412240514 1.2201261408 -1.7149028999
O -0.2251250267 1.3759018401 1.9391911767
O -2.3637453836 -0.5229764685 -1.4889422858
H -3.2421666525 0.1187132753 0.2089404802
H -2.9205040525 -1.6321378305 0.1556272651
H 1.4059050294 -2.8838522733 -0.1864880107
H 3.2111774932 0.4208175737 0.8288155534
H -0.933577656 0.6531778012 -1.7436175777
H 0.7426913505 1.3407684083 1.9288166857
H -1.7612487225 -1.2254803223 -1.7697163096
*
