! r2scan-3c def2/J RI DEFGRID2 scfconv6 printgap
%output
    printlevel normal
end
* xyz 0 1
C -2.0804975113 0.0097662043 -0.1316093819
C -0.7652156771 0.6376857033 0.3150684385
C 0.4700103235 0.0010532654 -0.3316375751
C 1.7123508806 0.8294476247 -0.007680214
C 0.6730582347 -1.4393798085 0.1321915769
H -2.9205466553 0.5572351723 0.2903696176
H -2.1543765561 -1.0240667643 0.1951893922
H -2.1658849123 0.0353746173 -1.2160907425
H -0.7815427473 1.6999786398 0.0586139714
H -0.6778318097 0.5630394916 1.4016430932
H 0.3280090191 0.0002793609 -1.4186778308
H 2.5933669737 0.3995007891 -0.4790289296
H 1.8782069497 0.8570464902 1.0674495066
H 1.5987786087 1.85136556 -0.3630213067
H 0.7719565632 -1.4773587258 1.2152971879
H 1.5772705391 -1.8538001898 -0.3085710902
H -0.1630739695 -2.0682632307 -0.161134765
*
