! r2scan-3c def2/J RI DEFGRID2 scfconv6 printgap
%output
    printlevel normal
end
* xyz 0 1
C -2.2782140961 -0.3349997777 -0.0223136535
C -1.8710593955 0.9893895017 -0.0219159391
C -0.5244608011 1.3006707493 -0.0081553248
C 0.4299077704 0.2901166897 0.0055168461
C 0.0179382992 -1.0332001565 0.0051893628
C -1.3314068012 -1.3434460788 -0.0087968135
C 1.8923734733 0.6559733466 0.0212672744
O 2.7005252014 -0.4985218686 0.0208139847
H -3.3308418821 -0.577197187 -0.0332145568
H -2.6057321768 1.7814487671 -0.0325061669
H -0.2076020626 2.3345216948 -0.0079691867
H 0.7633687526 -1.8121358332 0.0156285556
H -1.6429237026 -2.3778518298 -0.0090767116
H 2.1109546654 1.2787069553 -0.8615733792
H 2.094580262 1.2662621493 0.9167517811
H 3.624416841 -0.2306631921 0.0296290704
*
