  5
         -7.74550909
 C          1.6198567398       -0.0000091551       -0.0000008053
 Br        -0.3175261986       -0.0000009325        0.0000000043
 H          1.9562608769        0.9535315293       -0.3938737356
 H          1.9563984310       -0.1355430658        1.0226134480
 H          1.9564884965       -0.8178054372       -0.6287304588
