! pbe def2-sv(p) def2/J RI DEFGRID1 loosescf d4 GCP(DFT/SV(P)) printgap
%output
    printlevel normal
end
* xyz 0 1
C -2.9073670711 -1.6398340011 0.0001673463
N -2.6770005175 -0.2141686062 -0.0015998351
C -3.8431794288 0.6388952644 0.0014928458
C -1.4402788516 0.3769293365 -0.0007500148
O -1.3104608831 1.5850382773 -0.0012188243
N -0.3893865184 -0.5116326605 0.0005602517
C 0.9788931413 -0.2364620152 0.0004366295
C 1.502152665 1.0531643221 0.000758517
C 2.8723068334 1.2389089177 0.0004658309
C 3.7369020985 0.1576879034 -0.0001404221
C 3.2189931288 -1.1264997659 -0.0003308545
C 1.8521537681 -1.3242121295 1.7633e-06
H -2.4892738292 -2.1201116091 -0.8907769626
H -3.9815030333 -1.8118763761 -0.0041717602
H -2.496670097 -2.1172428411 0.8962144596
H -4.4528727124 0.460324032 -0.8874875681
H -3.4991434759 1.6709880751 -0.0008695676
H -4.4470468497 0.4625969285 0.8950267396
H -0.6072151009 -1.4953625666 0.001452041
H 0.8318129349 1.8954914047 0.0011326726
H 3.2670021926 2.2442287942 0.0003933445
H 4.8053803015 0.3122652265 -0.0008812592
H 3.8814266484 -1.9799519092 -0.0010846504
H 1.4531684128 -2.3303968391 -0.0001978347
*
