! pbe def2-sv(p) def2/J RI DEFGRID1 loosescf d4 GCP(DFT/SV(P)) printgap
%output
    printlevel normal
end
* xyz 0 1
C -2.7354252126 -0.6838812233 -1.0297216771
C -1.3303884109 -0.5419714731 -0.4513225784
H -0.6003578191 -0.8089948113 -1.226356847
C -1.0969116648 -1.4428904065 0.7598407102
C 0.378221408 -1.4497251824 1.1661275234
C 1.049499205 -0.0624093232 1.0180478267
H 1.6910028564 0.0950011838 1.8941682239
C -0.0156365137 1.0363082532 1.0370703721
C -1.0420539287 0.8959086071 -0.0626419491
O -1.5967417864 1.8440244037 -0.5615366937
C 1.9727584944 0.0048425685 -0.1901491797
C 2.921560354 -0.9048007715 -0.3606356962
C 1.8502785089 1.1595673451 -1.1371547438
H -3.4799845776 -0.5048339808 -0.2567979459
H -2.8858332292 0.0455732329 -1.8213447315
H -2.8850540355 -1.682033533 -1.4341868515
H -1.7219749218 -1.0954646543 1.585640056
H -1.410554001 -2.4615723482 0.5242886192
H 0.4582418221 -1.7922300943 2.1992458248
H 0.9097795322 -2.1683974525 0.5426321906
H -0.5658036542 0.9723340955 1.9810707332
H 0.4271283998 2.0319344201 0.995744263
H 3.5992640726 -0.8647535725 -1.1959431653
H 3.0723361107 -1.7208193144 0.3258880567
H 2.1149847819 2.0892653582 -0.6336808544
H 2.5250516129 1.027204037 -1.979159147
H 0.8379053437 1.2689956833 -1.5185922805
*
