! r2scan-3c def2/J RI DEFGRID2 scfconv6 printgap
%output
    printlevel normal
end
* xyz 0 1
C -1.8566337489 -2.17333379 -5.39886e-05
C -1.3900093788 -0.7482912993 -2.19028e-05
C -2.3019487474 0.2756925743 0.000203941
C -1.8993601632 1.6187660963 0.0001160241
C -0.5723676483 1.9374639376 -0.0001354835
C 0.405085776 0.9206343578 -0.0001654356
C -0.0020578014 -0.4408710421 -0.0001558603
C 0.9995550878 -1.4358810613 -0.0001132327
C 2.3259668081 -1.1043963387 0.00013186
C 2.7236885621 0.2401865128 0.0001850124
C 1.78152648 1.2290476964 -6.15705e-05
H -1.4915396267 -2.6986789549 0.8818720473
H -2.9431411223 -2.2160447636 0.0008854947
H -1.4928913609 -2.6981695454 -0.8828171989
H -3.3590912297 0.0490567921 0.0004326708
H -2.6506666964 2.3951493783 0.0003385221
H -0.2500154238 2.9689578926 -0.000233935
H 0.7130234461 -2.4761708478 -0.000130804
H 3.0786003489 -1.8797661733 0.0003214777
H 3.7759828351 0.4847737361 0.0003344829
H 2.0761426317 2.2692048978 -0.0001609919
*
