! pbe def2-sv(p) def2/J RI DEFGRID1 loosescf d4 GCP(DFT/SV(P)) printgap
%output
    printlevel normal
end
* xyz 0 1
C -2.7589598708 -0.7936992329 0.000182741
O -1.8007379515 0.2326385438 -0.0001364616
C -0.4833107149 -0.1126806434 -8.3896e-05
C 0.0070294701 -1.4089647869 -0.0001069309
C 1.3741254156 -1.6498847025 -2.5821e-05
C 2.2661948094 -0.5989644396 7.93754e-05
C 1.7895554883 0.7036455489 7.97036e-05
C 0.430511535 0.9593742627 -7.0619e-06
O -0.0720468791 2.2249877126 -1.03975e-05
H -2.6781783739 -1.4221968853 0.893777634
H -2.6786109479 -1.4223661563 -0.8933332778
H -3.7256236781 -0.2924111781 0.0003648408
H -0.6714793763 -2.2470650923 -0.0001948101
H 1.7312210341 -2.6683793301 -4.32217e-05
H 3.3297751105 -0.7805839896 0.0001593569
H 2.4817610643 1.5356363502 0.000158361
H 0.6562223957 2.857893427 3.4854e-05
*
