! pbe def2-sv(p) def2/J RI DEFGRID1 loosescf d4 GCP(DFT/SV(P)) printgap
%output
    printlevel normal
end
* xyz 0 1
C -2.4755510897 -0.4726066533 -0.2464623099
C -1.0432755345 -0.2041757711 0.227657126
H -0.9766310445 -0.4130467207 1.3090827699
C -0.6330533071 1.2753764331 -0.0045565459
H -1.2655010048 1.7187258487 -0.7823238318
C 0.8273847759 1.3081377699 -0.5001917235
H 1.2249345056 2.3201581235 -0.3750376557
C 1.6668805435 0.3220174976 0.3381424329
H 2.7061554265 0.3469355418 -0.0179930341
C 1.1207087667 -1.1188023014 0.1124242853
H 1.0785033732 -1.6417950804 1.0845892547
O -0.1662964865 -1.0789595597 -0.4634425111
O 1.9466279912 -1.8727986239 -0.6943648047
O 1.5903353124 0.7128250919 1.692440041
O 0.9239971218 1.0007556443 -1.8646094907
O -0.827466377 2.0514453039 1.1417427387
O -2.9764754568 -1.7171199287 0.1503170204
H -2.4963199241 -0.4814283846 -1.3380470003
H -3.1077418976 0.3476464937 0.1226204999
H 1.8966025723 -1.5369252307 -1.598964628
H 2.2292801288 0.2061920995 2.2054448669
H 0.3921374384 0.2057566526 -2.021724046
H -0.126561951 1.830370641 1.7723119092
H -2.9463479914 -1.7819255051 1.1117077534
*
