! r2scan-3c def2/J RI DEFGRID2 scfconv6 printgap
%output
    printlevel normal
end
* xyz 0 1
C -2.7817365133 0.1983880123 -1.0058805702
C -1.7541428393 -0.0479444016 0.0689612684
O -2.0482023158 -0.397937499 1.1839790924
C -0.3118210433 0.1650208067 -0.3587581388
C 0.4057874444 -1.1920215014 -0.3554977065
C 1.8787838867 -1.0248753756 -0.7127439074
C 2.5616335399 -0.073667994 0.2645986106
C 1.8579126031 1.2794822132 0.2633558082
C 0.3844074768 1.1173457502 0.6196794823
H -3.7803956997 -0.0168780614 -0.6353610997
H -2.7275466324 1.2379448089 -1.3234803044
H -2.565772621 -0.4292565197 -1.8680365258
H -0.278593546 0.5875890484 -1.367478259
H 0.3136939831 -1.6316105077 0.6395352871
H -0.0774520078 -1.8658647282 -1.0675004302
H 2.3718640838 -1.9988369192 -0.6929084462
H 1.9647113424 -0.626922251 -1.7270132403
H 2.5238044918 -0.499652176 1.2693818233
H 3.6114737626 0.0512362357 -0.0084482737
H 2.3357620297 1.9498569818 0.9803753329
H 1.9450323398 1.7328194867 -0.7274016788
H 0.2869977484 0.7110608546 1.6280197824
H -0.1140104676 2.089705434 0.6001333613
*
