! pbe def2-sv(p) def2/J RI DEFGRID1 loosescf d4 GCP(DFT/SV(P)) printgap
%output
    printlevel normal
end
* xyz 0 1
C -2.4908391472 -0.3322990013 -0.4697181678
C -1.1726512399 -0.2036158343 0.3035432395
H -1.3225812997 -0.5628493504 1.3361657073
C -0.6393717803 1.2494545427 0.3550300712
H -1.3880403357 1.9306531438 -0.0730678826
C 0.6420271804 1.3505561996 -0.5006549617
H 1.0464097688 2.3639261247 -0.4142830554
C 1.6994398085 0.3571929313 0.0305144112
H 2.4828986859 0.2475221662 -0.7299194209
C 1.0369562027 -1.0312395309 0.2666659816
H 0.9358463832 -1.201944091 1.3497401718
O -0.2488100357 -1.0644059946 -0.3418755335
O 1.7683412113 -2.091388903 -0.2177124341
O 2.339002714 0.8348251675 1.1766459367
O 0.3579273595 1.1507910996 -1.8565635099
O -0.3108987258 1.6415905688 1.6711048689
O -2.9832509146 -1.6398599412 -0.4278749473
H -2.327999786 -0.0035556138 -1.5069398515
H -3.2545443594 0.3018811178 -0.0138847426
H 1.887286659 -1.9958078748 -1.1709372203
H 1.6633169258 1.1688206272 1.7842424103
H 0.0341932267 0.2437701799 -1.9589935587
H -1.1158919499 1.7245877034 2.193679968
H -2.2652572597 -2.234084448 -0.6807057202
*
