! pbe def2-sv(p) def2/J RI DEFGRID1 loosescf d4 GCP(DFT/SV(P)) printgap
%output
    printlevel normal
end
* xyz 0 1
C -2.5578336392 -0.8840486352 0.2592844024
C -1.1422482042 -0.4283952314 0.637371695
H -1.056649735 -0.3471638657 1.7314038356
C -0.8334899942 0.9453985497 0.0279374199
H -1.0614171379 0.9194361527 -1.048953813
C 0.6513811248 1.2888543917 0.2009712754
H 0.865841157 1.420584477 1.2751691058
C 1.5184294597 0.1442247125 -0.322683617
H 1.3491051478 0.0184176208 -1.4036934427
C 1.096042002 -1.1550625187 0.3762574826
H 1.279798553 -1.0520679304 1.4680840004
O -0.2608351165 -1.42935918 0.1540804871
O 1.8469327879 -2.1944264739 -0.1533423892
O 2.8644006649 0.4533197058 -0.0647317486
O 0.9025329202 2.4891555307 -0.4864719606
O -1.6386918718 1.8910006041 0.6801442794
O -2.678035801 -1.1048401038 -1.11717126
H -3.2646927201 -0.096801192 0.5232076723
H -2.7958280211 -1.7978549731 0.8217804033
H 1.4026799217 -3.0253628803 0.0519439609
H 3.38889703 -0.3325698101 -0.2595971692
H 1.8596649876 2.6071216819 -0.5174200829
H -1.3636522892 2.7604737298 0.3626245175
H -1.9467964354 -1.6776601017 -1.3807226673
*
