! r2scan-3c def2/J RI DEFGRID2 scfconv6 printgap
%output
    printlevel normal
end
* xyz 0 1
C -2.5484609495 -0.8955710175 0.3210093321
C -1.1265865218 -0.4201594536 0.6525078283
H -1.011477865 -0.3092521328 1.7410548481
C -0.8411476977 0.9338100808 -0.0082987732
H -1.074404177 0.8508640053 -1.0846072647
C 0.6381571606 1.2932294954 0.1637360787
H 0.8313808664 1.5015928857 1.2233928607
C 1.5600896015 0.1539526468 -0.289317021
H 1.4906351705 0.0305980165 -1.3839297161
C 1.1229323278 -1.1709747957 0.3513637886
H 1.3419134139 -1.118369987 1.4377359735
O -0.2527918651 -1.4164407623 0.1600684719
O 1.8087674199 -2.1969561396 -0.2611664384
O 2.8807906958 0.414464162 0.096692247
O 0.9545752011 2.4962490756 -0.5052116523
O -1.6577640616 1.903462955 0.5955852502
O -2.6885606973 -1.1689680193 -1.0443349691
H -3.2549088982 -0.1018374022 0.5662828616
H -2.7714141019 -1.7877456301 0.9220790239
H 1.4794955918 -3.0384484991 0.0772619272
H 3.0756192178 1.3367683879 -0.118860645
H 0.8019485711 2.3786829444 -1.4519177521
H -1.2911095331 2.7721147686 0.3825528149
H -1.9654329415 -1.7601721227 -1.2909212955
*
