  13
        -23.26265046
 C         -3.4748917206        0.3750763057       -0.0000304922
 C         -2.7180039624        1.5355178469       -0.0000162019
 C         -1.3376046794        1.4530399769        0.0000387124
 C         -0.7250874198        0.2144450060        0.0000679258
 C         -1.4678318399       -0.9639053490        0.0000183242
 C         -2.8588351132       -0.8593584083       -0.0000252655
 O         -0.9245044801       -2.1959323720        0.0000108928
 I          1.4016868447        0.0998530903       -0.0000066965
 H         -4.5524889165        0.4313047409       -0.0000220920
 H         -3.1952549623        2.5027744999       -0.0000129833
 H         -0.7379095238        2.3500326861        0.0000480030
 H         -3.4285566188       -1.7747815467       -0.0000317397
 H          0.0445904371       -2.1354774289        0.0000574247
  13
        -23.26119719
 C         -3.4625741349        0.4207573959       -0.0000339324
 C         -2.6996531334        1.5747942295       -0.0000218449
 C         -1.3169347675        1.4887173963       -0.0000077062
 C         -0.7099367487        0.2499469947       -0.0000055261
 C         -1.4643296663       -0.9198139657       -0.0000179672
 C         -2.8504473575       -0.8202248228       -0.0000322880
 O         -0.8110896173       -2.1041330018       -0.0000156343
 I          1.3913942663        0.0698300156        0.0000143365
 H         -4.5400753645        0.4817133778       -0.0000441540
 H         -3.1747752833        2.5431637975       -0.0000224087
 H         -0.7136676459        2.3832354656        0.0000029536
 H         -3.4449798313       -1.7240756124       -0.0000418778
 H         -1.4345623129       -2.8396480525       -0.0000301769
