! r2scan-3c def2/J RI DEFGRID2 scfconv6 printgap
%output
    printlevel normal
end
* xyz 0 1
C -2.1892085007 -0.9145895742 -0.11954248
C -1.1066068164 -0.3354023395 0.814773546
H -1.5443703487 -0.3156558473 1.8209821253
C -0.7299094702 1.1294100591 0.4769957014
H -1.5973276433 1.5996247551 -0.003440147
C 0.4709219214 1.2361988595 -0.4773966838
H 0.8265617067 2.2751491958 -0.4509630047
C 1.6153120799 0.3271152135 0.0218189532
H 2.4406343359 0.3652113715 -0.706773189
C 1.0970917645 -1.117978348 0.0934302746
H 1.8414799145 -1.7747190649 0.5703161551
O -0.0024497972 -1.227281928 0.9545191071
O 0.8679143627 -1.6261773387 -1.1897006256
O 2.033804264 0.7947130977 1.2815362116
O 0.1517325452 0.9183658105 -1.8129316612
O -0.5048400501 1.8709214751 1.6440669503
O -1.8151531605 -0.9583215751 -1.4755670997
H -3.0777561873 -0.2821313328 -0.0630923995
H -2.443875165 -1.9187005053 0.2376170761
H 0.7819671874 -0.8749331317 -1.8079316799
H 2.6763293859 0.1802396285 1.6541658526
H -0.7290315569 0.4886183023 -1.8451468856
H 0.3637179695 1.6206508997 1.9939888952
H -1.1036013256 -1.6176136939 -1.5594485422
*
