! pbe def2-sv(p) def2/J RI DEFGRID1 loosescf d4 GCP(DFT/SV(P)) printgap
%output
    printlevel normal
end
* xyz 0 1
C -2.0467632981 -1.4027953938 -0.1063028075
C -1.0066659579 -0.517069369 0.6051293201
H -1.4565913392 -0.1619552918 1.5428614757
C -0.6464739274 0.7012867493 -0.2662160728
H -0.5428376424 0.3890948689 -1.3141961579
C 0.7014172852 1.2456432848 0.2213741206
H 0.6825220747 1.3686269549 1.3118900596
C 1.7744108923 0.2037544115 -0.1368696066
H 1.9903279535 0.274017223 -1.2164314826
C 1.2369839829 -1.2176391921 0.1257024477
H 2.0198839869 -1.7815241521 0.6525897259
O 0.1464905042 -1.2470246866 1.0028278148
O 0.9328914266 -1.7877308316 -1.1129607782
O 2.9462092762 0.3861672755 0.6093364529
O 1.0073534953 2.515503751 -0.2936664829
O -1.6680661887 1.6674125105 -0.2699625996
O -3.2907361146 -0.7628748048 -0.1879832642
H -2.201332943 -2.3161734846 0.4735005006
H -1.6755191882 -1.6728948004 -1.106189799
H 0.6716756311 -2.7071304969 -0.9795564389
H 3.1713441468 1.3253512673 0.5841709269
H 0.8228935851 2.5263684222 -1.2407408055
H -1.6590904636 2.1443933812 0.5688100941
H -3.1540463354 0.1255681215 -0.5469626258
*
