! pbe def2-sv(p) def2/J RI DEFGRID1 loosescf d4 GCP(DFT/SV(P)) printgap
%output
    printlevel normal
end
* xyz 0 1
C -1.8342212555 1.4750015995 0.0002483654
C -0.5400166957 0.7191720108 -7.60201e-05
C 0.6695256334 1.4030402738 -0.0001984429
C 1.8643816701 0.7035641753 -5.64769e-05
C 1.8001323078 -0.6794987973 0.0002671394
N 0.6609534484 -1.3446785738 3.60972e-05
C -0.4875825459 -0.6806368567 -0.0002383859
C -1.7118032038 -1.5463971417 -7.37443e-05
H -2.4259196819 1.2271230637 0.8806925106
H -1.6456549423 2.5462158437 0.0043015861
H -2.4223958477 1.2333618848 -0.8843366713
H 0.6729799623 2.4849018367 -0.0002384946
H 2.8129371142 1.2177878399 -0.0003187011
H 2.6955083346 -1.2877303466 9.88615e-05
H -1.6895899032 -2.1985310683 -0.87103448
H -1.6998147289 -2.1840528188 0.8818421436
H -2.628174492 -0.9672144275 -0.0099882187
*
