! r2scan-3c def2/J RI DEFGRID2 scfconv6 printgap
%output
    printlevel normal
end
* xyz 0 1
C -2.7694978816 -0.1384586748 -0.1824798162
O -1.4672894073 -0.4663637896 -0.6567728141
C -0.418266354 0.0049025058 0.0229919923
O -0.4812122184 0.6842371947 1.0058584702
C 0.8616439118 -0.4702246911 -0.6595495558
C 2.0506918369 0.0162465913 -0.0061481923
N 3.0060836045 0.3901198296 0.4941458374
H -3.3200003736 -1.0683826312 -0.0448056344
H -3.2647313699 0.479093219 -0.9319749307
H -2.697137985 0.4038808507 0.7615344025
H 0.8504935998 -0.1289526475 -1.698618447
H 0.868837427 -1.5640603329 -0.6610035728
*
