! pbe def2-sv(p) def2/J RI DEFGRID1 loosescf d4 GCP(DFT/SV(P)) printgap
%output
    printlevel normal
end
* xyz 0 1
C -2.5003556139 -0.720542417 0.0415897873
C -1.1020321458 -0.4480796136 0.6139557586
H -1.08573091 -0.7256209902 1.6806238827
C -0.7197733789 1.0469927615 0.5275807444
H -1.5847523863 1.6310203302 0.1787348368
C 0.433853995 1.2242131608 -0.4876765425
H 0.7418066693 2.276851671 -0.512436955
C 1.6368580408 0.3731658756 -0.0297847376
H 2.3766874113 0.3264563709 -0.8351439369
C 1.1568350858 -1.0738382203 0.2522677191
H 1.2712357708 -1.2808818654 1.3384597027
O -0.1985727584 -1.2622528109 -0.1036275404
O 1.9057971028 -1.9448255592 -0.5129425977
O 2.284200685 0.9417215657 1.070445722
O -0.0001140092 0.908013572 -1.7814740763
O -0.3500948613 1.4713762473 1.825332307
O -2.5976497477 -0.494045314 -1.3343422649
H -3.2225795595 -0.1046581481 0.5998659033
H -2.7468211056 -1.774156644 0.1891662077
H 1.4982340376 -2.8193649636 -0.4810687461
H 1.6388064674 1.027370714 1.7899176037
H -0.0503342967 -0.0582340397 -1.855573435
H -0.2340802524 2.4290792797 1.8243798016
H -2.1236817697 0.3149294205 -1.5754790573
*
