! pbe def2-sv(p) def2/J RI DEFGRID1 loosescf d4 GCP(DFT/SV(P)) printgap
%output
    printlevel normal
end
* xyz 0 1
C -2.4060187098 -1.1504626595 -0.291616109
C -1.0558055479 -0.6333629252 0.2338853304
H -1.0726047375 -0.6443322404 1.3382958533
C -0.7681402691 0.7994920987 -0.2475913135
H -0.8291048261 0.8288683321 -1.3418953501
C 0.6406612724 1.2583572485 0.1725352548
H 0.6642648377 1.4013597931 1.2680659958
C 1.6911508433 0.2036651001 -0.1809812428
H 1.8333488095 0.211155451 -1.2737028621
C 1.2214319737 -1.2031755014 0.2586459035
H 1.2324847556 -1.2432391536 1.362285877
O -0.0561819732 -1.506517695 -0.2395608857
O 2.1058082092 -2.1741836995 -0.1831850785
O 2.886039225 0.5145661348 0.4807232119
O 0.9666019178 2.4555009193 -0.479800562
O -1.7342710912 1.7252159196 0.2040272825
O -3.493605139 -0.4639881605 0.2559341319
H -2.5150933534 -2.1978348239 -0.0032091159
H -2.3997787549 -1.0894373843 -1.3884765356
H 1.850079733 -2.4203863878 -1.0808383529
H 3.4964440495 -0.2238328861 0.3557131962
H 0.2168973902 3.0590421969 -0.3934585032
H -1.7188905097 1.7487711241 1.1699267425
H -3.3989488416 0.4752689725 0.038772114
*
