! r2scan-3c def2/J RI DEFGRID2 scfconv6 printgap
%output
    printlevel normal
end
* xyz 0 1
C -2.4017136744 0.0448816046 0.005249985
C -0.9430812798 0.4806786555 -0.0673025447
C -0.0013536488 -0.6721834945 0.1373055364
C 1.3204864452 -0.6083038611 0.1008829262
C 2.136036913 0.6181654358 -0.1493940968
H -3.0633044933 0.8952759373 -0.146043908
H -2.62169651 -0.3912680485 0.9774933982
H -2.6165884977 -0.6967521995 -0.7613499558
H -0.752352365 0.9411109217 -1.0413291264
H -0.7565235481 1.2441864258 0.6942152817
H -0.4746373753 -1.6255618921 0.3304101654
H 1.8980383995 -1.5095735375 0.263649689
H 2.7641536838 0.474959813 -1.0287563264
H 2.7963700562 0.8051561364 0.6975058869
H 1.5112204941 1.4922355618 -0.3044733788
*
