! pbe def2-sv(p) def2/J RI DEFGRID1 loosescf d4 GCP(DFT/SV(P)) printgap
%output
    printlevel normal
end
* xyz 0 1
C 1.4024082202 0.265601897 1.2244082011
C 0.7232386695 0.1407978193 -0.1102561669
C 1.440169527 0.2862922327 -1.2236201669
C -0.7233348236 -0.1402247565 -0.1102530508
C -1.4414903412 -0.2793600077 -1.2236349982
C -1.401102688 -0.2725169153 1.2244045125
H 0.966466232 1.075240917 1.8074677104
H 2.4613921418 0.4717914653 1.0914600987
H 1.3020288931 -0.6541621928 1.7984259614
H 1.0189958373 0.2102291038 -2.2093733657
H 2.4966744101 0.4911036966 -1.1833561434
H -2.4979783039 -0.4842611735 -1.1833790771
H -1.0213996708 -0.1976635896 -2.2093974631
H -2.4601868127 -0.47822408 1.0914730458
H -0.9643538131 -1.0852151489 1.8025709463
H -1.3003109462 0.6441268453 1.8033239808
*
