! pbe def2-sv(p) def2/J RI DEFGRID1 loosescf d4 GCP(DFT/SV(P)) printgap
%output
    printlevel normal
end
* xyz 0 1
C -2.2225477021 -1.0200553598 -0.3738828973
C -1.1749241079 -0.2071319065 0.3998845923
H -1.6563217591 0.2126075591 1.294194288
C -0.5944046607 0.9371471304 -0.4444306427
H -0.4287532948 0.5901266074 -1.4722228723
C 0.7538853596 1.3322089069 0.1748804709
H 0.6384213141 1.4819695686 1.2567194923
C 1.7340956796 0.1694543435 -0.0535522579
H 2.0709993652 0.1912446312 -1.1031737476
C 1.0192464453 -1.1774135909 0.1638637041
H 1.6722228766 -1.8091278538 0.7834611453
O -0.1592197688 -1.071304689 0.9141070917
O 0.7970465317 -1.741407254 -1.0941883781
O 2.8316085081 0.2386173334 0.8154785763
O 1.2577303284 2.5438515682 -0.324523757
O -1.4782782569 2.0164602258 -0.5594767237
O -2.7938915935 -2.0117146186 0.4374404228
H -1.7520508679 -1.4660003143 -1.2621746647
H -3.0294873348 -0.3589508591 -0.6964330863
H 0.4447196205 -2.6337976326 -0.9877179702
H 3.1676416814 1.1441006388 0.7940592246
H 1.0691622336 2.5982812546 -1.2690363052
H -1.5635484252 2.4532082065 0.2970637145
H -2.0801132723 -2.4065856462 0.9554260416
*
