! pbe def2-sv(p) def2/J RI DEFGRID1 loosescf d4 GCP(DFT/SV(P)) printgap
%output
    printlevel normal
end
* xyz 0 1
C -1.8454111738 0.1562262709 0.2967332249
C -0.6248662667 -0.5234768007 -0.3120728557
C 0.5941202306 0.4154973688 -0.3969832145
O 1.6895224399 -0.0209528867 0.3749640946
H -2.1516189016 1.0052257622 -0.3102830083
H -2.6781885552 -0.5410380598 0.3563862657
H -1.6196175313 0.5106528778 1.2994106182
H -0.878175429 -0.8968307866 -1.3063301642
H -0.3541039401 -1.3826706921 0.3065585418
H 0.90357078 0.5469393059 -1.4435641422
H 0.3425313826 1.398646942 0.0061920172
H 1.9740275564 -0.8832699938 0.0530438616
*
