! pbe def2-sv(p) def2/J RI DEFGRID1 loosescf d4 GCP(DFT/SV(P)) printgap
%output
    printlevel normal
end
* xyz 0 1
C -2.434488246 1.0613844467 -0.4280604599
C -1.7021528983 -0.277183142 -0.2954343493
C -2.3141152143 -1.0643941569 0.8670183829
C -0.2014285748 -0.1029813061 -0.149580591
C 0.457383269 0.9837480483 -0.7168901956
C 1.8279606583 1.1350193097 -0.6014333258
C 2.5802065422 0.1980280466 0.08312949
C 1.9434488936 -0.8947258843 0.6424783754
C 0.5726270585 -1.0424581055 0.5248703793
H -2.1708481731 1.7213109799 0.395655711
H -3.5098307912 0.8973689686 -0.4061903677
H -2.1988881001 1.5581077938 -1.3651886627
H -1.8755171943 -0.8490399178 -1.2179735205
H -3.3989616659 -1.0611428601 0.7838963147
H -2.0410786149 -0.6112206388 1.8176773924
H -1.9894828846 -2.1012858251 0.8661615361
H -0.0951595908 1.7315583113 -1.263037443
H 2.3091100361 1.9920191067 -1.0508179562
H 3.6497617703 0.3159275981 0.1762581909
H 2.5159357313 -1.6406321559 1.1752299861
H 0.1123096966 -1.9105146561 0.9690118762
*
