! pbe def2-sv(p) def2/J RI DEFGRID1 loosescf d4 GCP(DFT/SV(P)) printgap
%output
    printlevel normal
end
* xyz 0 1
C -2.832031137 1.3416034847 -0.2497440797
C -2.3707624595 -0.0466156401 0.1775989947
C -0.8850672795 -0.2893853225 0.1028386758
C -0.4182311212 -1.5985204391 0.1680434416
C 0.9365803021 -1.8697319608 0.1202954964
C 1.8548172491 -0.8438473837 0.0042722387
C 1.4013021388 0.4674101173 -0.061743609
C 0.0387168153 0.7381306764 -0.0107106525
O 2.3232476369 1.4645347907 -0.1762321826
H -3.9191364877 1.3817575179 -0.2554977717
H -2.4765851143 1.5730301831 -1.2515262093
H -2.4736867258 2.1046075121 0.4373826524
H -2.8683081398 -0.7939445102 -0.4464395068
H -2.693958365 -0.2275781053 1.2081326318
H -1.1265226155 -2.4093988128 0.2572351158
H 1.2828044271 -2.8913244067 0.1715892158
H 2.9149958703 -1.0343310245 -0.0372032312
H -0.287567205 1.7675858682 -0.0622145207
H 1.8757241451 2.3183746298 -0.2132990795
*
