! pbe def2-sv(p) def2/J RI DEFGRID1 loosescf d4 GCP(DFT/SV(P)) printgap
%output
    printlevel normal
end
* xyz 0 1
C -2.3253572186 -0.9593754352 -0.1459392871
C -1.2148561928 -0.1235060089 0.5578385213
H -1.6298080003 0.3495440436 1.4543908903
C -0.6555160873 0.9928589318 -0.3348291744
H -0.5923610238 0.6459568485 -1.3810488215
C 0.7640372049 1.3360264813 0.1433038855
H 0.7368513767 1.5729088736 1.2131527627
C 1.6844193788 0.1288010909 -0.0831916287
H 2.0091019568 0.1165121393 -1.1380127391
C 0.8865343601 -1.1706902801 0.1513941131
H 1.5409457031 -1.8882361602 0.671276466
O -0.1831917362 -0.9765774382 1.0372897063
O 0.4763691431 -1.6465390173 -1.0886503302
O 2.7936189477 0.1403251035 0.7731308982
O 1.234863745 2.5054790011 -0.4865895243
O -1.4988586884 2.1118826901 -0.2572570641
O -2.0415330825 -2.3379635846 -0.1157133365
H -2.3981369789 -0.6907405427 -1.2010634035
H -3.29108909 -0.7576182527 0.3313549824
H -0.2943571867 -2.2308617204 -0.9540644369
H 3.1989481612 1.0157825703 0.736059771
H 1.329888197 2.334385947 -1.4327728078
H -0.9421208698 2.8998723441 -0.3451519261
H -1.8124140011 -2.5712492482 0.7942275506
*
