! pbe def2-sv(p) def2/J RI DEFGRID1 loosescf d4 GCP(DFT/SV(P)) printgap
%output
    printlevel normal
end
* xyz 0 1
C -2.0782489127 -1.2539471247 -0.1568582567
C -1.2241578985 -0.3832048998 0.7916252859
H -1.800754175 -0.2391021493 1.7132982709
C -0.9229070008 0.9916984179 0.1605401022
H -1.2245016603 0.9819911187 -0.89368452
C 0.5788508106 1.2858018474 0.2375978224
H 0.8797299156 1.37783872 1.2969966902
C 1.3562659 0.1260638188 -0.3903836631
H 1.0391509104 0.0153066353 -1.4389505758
C 1.0294249569 -1.168287729 0.3706501324
H 1.8866335588 -1.4091460967 1.014789993
O -0.0471305479 -1.0407663161 1.2576259135
O 0.8179762096 -2.1891702585 -0.5667531739
O 2.7381080283 0.3394154068 -0.3167563894
O 0.9026038663 2.46858263 -0.451918775
O -1.6587093827 2.0408123051 0.7425088196
O -1.6268913108 -1.2735392773 -1.4792020341
H -3.0844112068 -0.8290966156 -0.1877940786
H -2.1344005168 -2.2681653092 0.2635660435
H 0.7374305684 -3.0331183064 -0.1051917395
H 2.9037572779 1.2323533764 -0.6473584256
H 0.1559864424 3.0747388898 -0.3579261781
H -1.4690155285 2.0751769007 1.6886296139
H -0.7385985436 -1.6715204665 -1.4908938274
*
