! pbe def2-sv(p) def2/J RI DEFGRID1 loosescf d4 GCP(DFT/SV(P)) printgap
%output
    printlevel normal
end
* xyz 0 1
C -2.3887504836 -0.8844201103 0.4039185662
C -0.936732115 -0.4262991062 0.60345054
H -0.6496669822 -0.5756398683 1.6558843828
C -0.7434578811 1.0653799367 0.2326513575
H -1.528037077 1.3697550601 -0.4746375831
C 0.6189916846 1.2365651744 -0.472341313
H 0.9118447718 2.2899890923 -0.4209828954
C 1.6640712926 0.3689023604 0.2517732251
H 2.645073715 0.493391402 -0.226095516
C 1.2607555331 -1.1232543702 0.0743505824
H 1.4792245867 -1.6685293068 1.0041818423
O -0.128599576 -1.239388192 -0.2270923356
O 1.9623492638 -1.7497602937 -0.9307313685
O 1.8079803691 0.7182304675 1.6012733998
O 0.5347940295 0.9041882923 -1.8330728782
O -0.7517171107 1.8888829828 1.3809281667
O -2.8050053943 -0.7261153679 -0.9238350939
H -3.0572266604 -0.2726964082 1.0143781887
H -2.473635301 -1.9310024064 0.7221388008
H 1.8829190718 -1.2358759181 -1.7466173458
H 1.038536312 1.2363358422 1.8801584644
H 0.0677334568 0.0579554929 -1.8982701584
H -1.6463769598 1.9436799996 1.7327311297
H -2.2513130811 -1.2924615332 -1.4745838607
*
