! r2scan-3c def2/J RI DEFGRID2 scfconv6 printgap
%output
    printlevel normal
end
* xyz 0 1
C -2.2143846752 -0.4172150311 3.888e-07
C -1.1808744003 0.687486653 -1.128e-07
Br 0.6356681592 -0.0475813552 -2.69e-08
H -3.2113248791 0.0205554608 -0.0001393069
H -2.1096446026 -1.0444493519 -0.8829877176
H -2.1098124389 -1.0442771667 0.8831291557
H -1.2513547466 1.3097648999 0.8910517441
H -1.2513605412 1.3097586294 -0.8910550307
*
