! pbe def2-sv(p) def2/J RI DEFGRID1 loosescf d4 GCP(DFT/SV(P)) printgap
%output
    printlevel normal
end
* xyz 0 1
C -2.811998772 -0.5703921364 0.0715943896
O -1.4573374267 -0.9610237939 0.2776556324
C -0.5277205785 -0.1161188819 -0.1778126162
O -0.7639780306 0.923799936 -0.7195705949
C 0.852849523 -0.6962110982 0.0816798825
Cl 2.0569885835 0.6003653789 0.198424368
H -2.9924656332 0.4118300312 0.5116795228
H -3.4212468158 -1.3277629203 0.5570951085
H -3.0336245379 -0.5249687881 -0.9961306666
H 1.1348231352 -1.3401308424 -0.753263398
H 0.8545237465 -1.2682968235 1.008395188
*
