! pbe def2-sv(p) def2/J RI DEFGRID1 loosescf d4 GCP(DFT/SV(P)) printgap
%output
    printlevel normal
end
* xyz 0 1
C -1.7988155479 -1.0253258292 -0.7119496192
C -1.0488304997 -0.4494601579 0.5116010702
H -1.7406897883 -0.54476965 1.3619439009
C -0.6896155553 1.0384320482 0.3462435583
H -1.510651389 1.5473648109 -0.1854037128
C 0.5980965434 1.244872866 -0.4700908523
H 0.8906002029 2.2973988473 -0.3418810456
C 1.7325126925 0.3564032341 0.0798417818
H 2.5868332292 0.3836129572 -0.6091043139
C 1.2449072069 -1.1102408903 0.1547590964
H 1.9712002202 -1.7082014892 0.7169771845
O 0.0644438234 -1.2244414923 0.9121934063
O 1.1589630666 -1.677296689 -1.1113198168
O 2.2046166832 0.8271366592 1.3061791062
O 0.3191000156 0.961829225 -1.828142414
O -0.4651012443 1.6573913467 1.5952793643
O -3.1704603694 -0.7144382696 -0.6652414442
H -1.7307449401 -2.1142175669 -0.6659148829
H -1.3591761164 -0.6723840585 -1.6500747873
H 0.6696803125 -1.0773624257 -1.6940215679
H 1.442063639 0.9786887316 1.8850947791
H 1.0587159573 1.2675994126 -2.3654689463
H -1.2076763224 1.4710600615 2.1816598962
H -3.2969667373 0.2152910176 -0.8829589363
*
