! pbe def2-sv(p) def2/J RI DEFGRID1 loosescf d4 GCP(DFT/SV(P)) printgap
%output
    printlevel normal
end
* xyz 0 1
C -2.4742355726 -0.4242059905 1.4202034377
C -2.0410296222 -0.4727079262 -0.0512293288
H -2.9486139877 -0.5468997192 -0.6587135526
C -1.1150737776 -1.6698730879 -0.3438205501
C 0.3077704573 -1.2409031707 -0.6924246854
C 0.7908778092 -0.2107494276 0.33486952
H 0.5495092493 -0.6003180925 1.3290835193
C 0.0135450983 1.0863010002 0.0931678388
C -1.4067409588 0.866417608 -0.3751369046
O -2.022697533 1.7350127766 -0.9433542495
C 2.2869534586 -0.012934455 0.2823307949
C 3.0550137511 -0.3878178604 1.2938181562
C 2.8712284687 0.5997427861 -0.9557285913
H -1.6144932789 -0.3397932159 2.0799900123
H -3.1270328798 0.4292457202 1.5915213177
H -3.0200710726 -1.3301582096 1.6747286374
H -1.0839475506 -2.3203481401 0.5327678098
H -1.5237597435 -2.2550748844 -1.1691884103
H 0.9645192461 -2.112825073 -0.6933502244
H 0.3247372718 -0.7993899009 -1.691047565
H -0.028294661 1.6893045723 1.0044985304
H 0.5027050035 1.6995169501 -0.6656046938
H 4.125841844 -0.2764764436 1.2668330912
H 2.6488756312 -0.8204040818 2.192854806
H 2.3966629001 0.2047239685 -1.8509438341
H 2.7335529515 1.6811266597 -0.9485308844
H 3.9386484108 0.4017453894 -1.0090475963
*
