! pbe def2-sv(p) def2/J RI DEFGRID1 loosescf d4 GCP(DFT/SV(P)) printgap
%output
    printlevel normal
end
* xyz 0 1
C 1.1595361691 -0.6975514156 0.0011147878
C 1.1595696931 0.6974845631 0.0012788293
C 2.3646731901 1.392740015 0.0005745797
C 3.5758368341 0.6960764874 -0.0003676778
C 3.5758097883 -0.6960386797 -0.0005036327
C 2.3646833324 -1.3927434008 0.0002227214
Cl 2.3334273187 -3.1033277094 1.43829e-05
Cl 5.0515600641 -1.5579548202 -0.0015795908
Cl 5.0515396941 1.5579975307 -0.0011276541
Cl 2.3333385876 3.1033225323 0.001000157
O 1.36578e-05 1.4228098443 0.0021291479
C -1.1595627214 0.6975079857 0.0012362702
C -1.1595406591 -0.6975286558 0.001235095
C -2.3646788958 -1.3927346429 0.0005926252
C -3.5758470527 -0.6960805117 -0.0002224216
C -3.5757950311 0.6960360626 -0.0003654186
C -2.3646716186 1.3927229783 0.0004154055
Cl -2.3334003106 3.1033423416 2.54645e-05
Cl -5.0515506282 1.5579601103 -0.0018152499
Cl -5.0515502439 -1.5579888439 -0.0009703545
Cl -2.3333718367 -3.103310517 0.0009260936
O -7.1407e-06 -1.4228178746 0.0017736629
*
