! pbe def2-sv(p) def2/J RI DEFGRID1 loosescf d4 GCP(DFT/SV(P)) printgap
%output
    printlevel normal
end
* xyz 0 1
C -2.5624204784 -0.7033730324 -0.2548472266
C -1.1708981099 -0.2957841593 0.2437482988
H -1.1921918423 -0.2042115144 1.3439609418
C -0.7142067021 1.0405876224 -0.3703225722
H -0.6892691581 0.9295705479 -1.4616745748
C 0.6965570747 1.3407043182 0.14890396
H 0.665517498 1.4694149048 1.2401492857
C 1.6479991311 0.1712733396 -0.1661364459
H 1.7999586716 0.1003157753 -1.2557102229
C 1.0511276375 -1.1623654618 0.3054668698
H 1.0839631274 -1.180401297 1.4152316507
O -0.2833318157 -1.3320416571 -0.1254752316
O 1.7925402205 -2.1846005339 -0.2440208446
O 2.8682922056 0.3602758312 0.4934931935
O 1.2242390047 2.5487717 -0.3422292553
O -1.6104787807 2.0877155854 -0.1242504275
O -3.0415299405 -1.8364534508 0.4115082091
H -2.5035918875 -0.8765823725 -1.3374976974
H -3.2690471763 0.1045310469 -0.0586142796
H 1.3718121909 -3.0267987573 -0.0332016256
H 3.1386274284 1.2769387939 0.3435508616
H 1.028762868 2.6226285193 -1.2837885689
H -1.5829052029 2.321387242 0.8115319837
H -2.3930164566 -2.5403710072 0.2908470153
*
