! pbe def2-sv(p) def2/J RI DEFGRID1 loosescf d4 GCP(DFT/SV(P)) printgap
%output
    printlevel normal
end
* xyz 0 1
C 1.9450354303 0.0001061207 0.7705456249
N 1.1279601215 -1.51008e-05 -0.4242025396
C 0.3019903205 -1.1858002946 -0.5841047613
C -0.9486282351 -1.164998692 0.3051779729
O -1.7154743364 -1.41e-08 0.0798389347
C -0.9486846222 1.1650140622 0.3052274782
C 0.3018228351 1.1856794276 -0.5842055035
H 1.3824965026 0.000535013 1.714448254
H 2.5821240759 0.8837966646 0.7513602741
H 2.5820276499 -0.8837514799 0.7518211181
H -0.0145813388 -1.2192808936 -1.631560224
H 0.9009377682 -2.0723129439 -0.369405609
H -1.6026400125 -2.006817737 0.0721584895
H -0.6607353017 -1.2216889084 1.3669028819
H -1.6027444224 2.0068523025 0.072381863
H -0.6606493045 1.2215757137 1.3669268398
H -0.0149010313 1.2190159683 -1.6316244491
H 0.9006739754 2.0722789437 -0.3696760547
*
