! pbe def2-sv(p) def2/J RI DEFGRID1 loosescf d4 GCP(DFT/SV(P)) printgap
%output
    printlevel normal
end
* xyz 0 1
C -2.2161714936 -1.032439034 -0.4258259993
C -1.1903865363 -0.2157214727 0.3821817466
H -1.7026680177 0.1544779642 1.2827304208
C -0.6338808207 0.9820984778 -0.3966178339
H -0.5241786381 0.7479236691 -1.4633253336
C 0.7437264447 1.3414171283 0.1804049534
H 0.6487004967 1.4839897726 1.2711236752
C 1.7198061178 0.184692069 -0.0756699549
H 2.032227526 0.2356089449 -1.1326880913
C 1.0292456743 -1.1781384642 0.1694799678
H 1.6775825121 -1.7767291347 0.8183782423
O -0.1635378187 -1.0553434295 0.9004224489
O 0.8757494259 -1.9162806408 -0.9990406912
O 2.8394845937 0.2638000834 0.7609520906
O 1.2544051418 2.5082613675 -0.4140174435
O -1.4928145468 2.0943539224 -0.3724305891
O -2.7610535164 -2.0573412579 0.3525128561
H -1.7439165877 -1.4440335769 -1.3304649553
H -3.041299104 -0.3815843586 -0.7249828475
H 0.4378852814 -1.3928175233 -1.6812321637
H 3.2284176879 1.1412976089 0.6552908474
H 0.5030771483 3.0730804585 -0.6442281677
H -1.7310960367 2.2954656465 0.5416764617
H -2.0244877002 -2.5324565273 0.7608821972
*
