! pbe def2-sv(p) def2/J RI DEFGRID1 loosescf d4 GCP(DFT/SV(P)) printgap
%output
    printlevel normal
end
* xyz 0 1
C -1.9989668595 -0.6257220602 -0.7396743803
C -1.191789559 -0.086892389 0.4529282346
H -1.8600875403 -0.0153575407 1.3202738364
C -0.6139898494 1.3124642918 0.2101851642
H -1.3331928115 1.8722340725 -0.4061452624
C 0.7437217327 1.2973582393 -0.5349339312
H 1.1869783289 2.2996878148 -0.4384722021
C 1.6847124173 0.2873444056 0.1437579507
H 2.6016113364 0.1873059838 -0.4464048797
C 0.9985718941 -1.0913404082 0.1995640876
H 1.6124538047 -1.7653431147 0.8176147191
O -0.2286222014 -1.0541185153 0.8718137988
O 0.8893228915 -1.5783733632 -1.1124059914
O 2.0663151769 0.6999395676 1.422691964
O 0.5921989183 1.0634340969 -1.9058263619
O -0.4772576842 1.9155965427 1.4828555709
O -2.4522636711 -1.9290425042 -0.4696069725
H -1.3907014558 -0.6198748818 -1.6536231162
H -2.8775311366 0.0030826802 -0.9047119097
H 0.4715236439 -2.448698509 -1.1041074239
H 1.2605044073 0.8582545894 1.9412614288
H 0.6472309072 0.1087643162 -2.0620384176
H -0.1706357901 2.8235968989 1.3749208398
H -1.8326692568 -2.3214844504 0.161339106
*
