! pbe def2-sv(p) def2/J RI DEFGRID1 loosescf d4 GCP(DFT/SV(P)) printgap
%output
    printlevel normal
end
* xyz 0 1
C -2.3495646636 -1.02683246 -0.5404888462
C -1.4677932082 -0.0040078938 0.1375902527
O -1.6669535358 0.3458637931 1.2733644026
C -0.3552550465 0.5760816092 -0.7240210505
C 0.4960542731 -0.5028264169 -1.4044176521
C 1.3198280253 -1.2711774928 -0.3753099355
C 2.2320928238 -0.3151546384 0.3861698745
C 1.4038159059 0.7595605379 1.0820841919
C 0.5440009759 1.5223780157 0.0774591134
H -1.8599015631 -1.9984597907 -0.5025628673
H -3.2935108023 -1.1020652345 -0.0062073455
H -2.5290809748 -0.7697834622 -1.5804846849
H -0.8692373993 1.1542480226 -1.5042570392
H -0.1312395398 -1.1869261056 -1.977232204
H 1.1750174895 -0.0125992285 -2.106699856
H 0.6533588447 -1.7713284205 0.3313834558
H 1.9143804736 -2.0374794252 -0.8780258607
H 2.8191836217 -0.8672180806 1.1227435887
H 2.9283799695 0.1542394951 -0.3136913073
H 0.7549852504 0.2961884893 1.8261649376
H 2.0617333882 1.4592964961 1.6013602211
H -0.0780702702 2.24521101 0.6077167454
H 1.1886501895 2.0683990871 -0.6155322473
*
