! pbe def2-sv(p) def2/J RI DEFGRID1 loosescf d4 GCP(DFT/SV(P)) printgap
%output
    printlevel normal
end
* xyz 0 1
C -2.3374561577 0.094802752 -0.2242771294
C -0.9359077368 0.4447362351 0.2651962415
C 0.002368677 -0.7177756173 0.1514139755
C 1.3123398194 -0.6294255641 -0.0227166528
C 2.0733816096 0.6557449981 -0.1379674798
H -3.0005700845 0.9522549413 -0.1314747784
H -2.7532371716 -0.7247823138 0.3581675964
H -2.309531317 -0.2066096596 -1.2692988097
H -0.5492206442 1.2924745928 -0.3041931116
H -0.988969616 0.7563811831 1.3142438579
H -0.458665008 -1.6929369252 0.2359877462
H 1.8990557774 -1.5359070554 -0.0817740265
H 1.6836038422 1.2645135378 -0.953898524
H 3.1269626231 0.4666099399 -0.3236575574
H 1.9833957609 1.238377237 0.7787415425
*
