! pbe def2-sv(p) def2/J RI DEFGRID1 loosescf d4 GCP(DFT/SV(P)) printgap
%output
    printlevel normal
end
* xyz 0 1
C -2.7686128551 0.3392004607 1.3121034663
O -1.4500751324 0.0967872164 0.845269403
C -1.3239414652 -0.1304678047 -0.4695471838
O -2.261007383 -0.1371835886 -1.2250335365
C 0.1174621806 -0.3296285058 -0.8884857203
C 0.841289172 -1.3489704228 0.0040548444
C 2.3439213058 -1.0930554141 -0.0186088477
C 2.670723718 0.2452343501 0.6555482221
C 1.5304085307 1.2544138131 0.4756377363
C 0.835428833 1.0373607318 -0.862153698
H -2.6920920471 0.4734580031 2.3881036197
H -3.4159443399 -0.5073636851 1.0750019993
H -3.1789680476 1.2351164695 0.8418404227
H 0.0873274412 -0.6904286077 -1.9208570624
H 0.4805697641 -1.2649483746 1.0293945402
H 0.6224971742 -2.3588257351 -0.3473126614
H 2.8670102828 -1.9029946304 0.4920728439
H 2.6855656396 -1.0863336382 -1.0553681071
H 2.8454057636 0.0905698354 1.7216288725
H 3.5922171389 0.6458792991 0.2289765949
H 0.7959676257 1.1398541557 1.2735285028
H 1.9231238647 2.2711242197 0.5308200553
H 0.11372549 1.8345666423 -1.0521213708
H 1.576230512 1.0703769023 -1.6625805483
*
