! r2scan-3c def2/J RI DEFGRID2 scfconv6 printgap
%output
    printlevel normal
end
* xyz 0 1
C 1.841445157 0.9810997928 -0.2291139467
C 0.9774378563 -0.1005071342 0.4062633335
C -0.3742793207 -0.2864263953 -0.2961251709
H -0.1922277363 -0.472056308 -1.3696635533
C -1.2820965213 0.929051691 -0.1503932944
O -1.0783657431 -1.3860859314 0.2530059374
H 1.9778174113 0.7852015646 -1.2907353589
H 2.8203569898 1.0034576224 0.2440730199
H 1.387049359 1.9612029432 -0.1146667663
H 0.7953396426 0.1364036501 1.4566747454
H 1.5177231206 -1.0523086593 0.3698413364
H -0.8690230684 1.7833085681 -0.6772126876
H -2.258737217 0.6948924228 -0.5647028735
H -1.4045054354 1.1735636679 0.901375811
H -0.5092517092 -2.1629140054 0.2388339753
*
