! pbe def2-sv(p) def2/J RI DEFGRID1 loosescf d4 GCP(DFT/SV(P)) printgap
%output
    printlevel normal
end
* xyz 0 1
C -2.8756022779 -0.6247917023 -0.9034665481
C -1.4184433969 -0.5426483868 -0.4538270586
H -0.7755879072 -0.8180906413 -1.3003100024
C -1.1090822805 -1.4786918299 0.7111895987
C 0.3903979023 -1.5120917331 1.0018612252
C 1.0406752932 -0.1043328755 0.9991487069
H 1.6225926509 -2.79946e-05 1.9227104013
C -0.0316426953 0.9883529496 1.0275123614
C -1.0487809094 0.8820552439 -0.0831102012
O -1.5443040921 1.8495282589 -0.6069421604
C 2.0353870969 0.0408274139 -0.1425401169
C 3.0639717974 -0.7908836418 -0.2258546119
C 1.8624370681 1.1482313628 -1.1351798488
H -3.5395926851 -0.4346405201 -0.0627084888
H -3.0699169749 0.1237731799 -1.6671724844
H -3.0977503566 -1.6095456897 -1.3072281163
H -1.6649386928 -1.1521983015 1.5929032319
H -1.4490454633 -2.487859317 0.4698322953
H 0.5523921757 -1.9970383931 1.9658421791
H 0.8787796011 -2.1259482432 0.243524297
H -0.5937590769 0.8996970725 1.9624757077
H 0.4133942596 1.9838579686 1.0174366773
H 3.7909707901 -0.7176370204 -1.0161704454
H 3.2256571821 -1.5764158406 0.4932498382
H 2.5910959679 1.0512452609 -1.9362065858
H 0.8654542477 1.1475753991 -1.5696621433
H 2.0114659322 2.1157430797 -0.6565615507
*
