! pbe def2-sv(p) def2/J RI DEFGRID1 loosescf d4 GCP(DFT/SV(P)) printgap
%output
    printlevel normal
end
* xyz 0 1
C -2.2868924985 -0.921523532 0.7600341224
C -0.8478055486 -0.3870546465 0.7672777225
H -0.5640136455 -0.1085389585 1.792037657
C -0.6771770069 0.8250177438 -0.1606230357
H -0.9013403089 0.4922342965 -1.1878189881
C 0.7808969195 1.3151984952 -0.1000380242
H 0.8137169881 2.1439911494 0.6239431673
C 1.7476224833 0.2054714503 0.3677017709
H 2.7227226543 0.40227526 -0.1031226725
C 1.2496267325 -1.1463475912 -0.1596478847
H 1.892202562 -1.9597726249 0.1998673539
O -0.040202802 -1.4608770396 0.3090643105
O 1.3103062049 -1.176289521 -1.5498418873
O 1.8641036079 0.1331020106 1.7626043816
O 1.226784273 1.7453682343 -1.3689742963
O -1.4987486146 1.9143553853 0.184661498
O -2.728079089 -1.1950344299 -0.5424458969
H -2.972393868 -0.1840640158 1.1838271121
H -2.3128559159 -1.825046964 1.3818708473
H 1.1625603453 -0.2881027198 -1.9086190294
H 2.2772862912 0.9401804819 2.090759143
H 0.6661098472 2.4747385636 -1.6584852216
H -2.4189325127 1.6522407995 0.066803408
H -2.092831801 -1.8133164122 -0.9278238839
*
