! pbe def2-sv(p) def2/J RI DEFGRID1 loosescf d4 GCP(DFT/SV(P)) printgap
%output
    printlevel normal
end
* xyz 0 1
C 1.5714661728 -0.5989918166 0.8775626633
C 0.7217121743 0.1782935496 -0.0822555711
C 1.2018709294 1.1229643128 -0.874002677
C -0.7217530924 -0.1777835048 -0.0821636839
C -1.200762436 -1.1229302818 -0.8740629336
C -1.5724859501 0.5986015598 0.8775469589
H 1.2212165048 -0.4500494787 1.8986319327
H 2.6121030701 -0.2915147196 0.8144364677
H 1.4997317603 -1.6635428122 0.6569180356
H 0.5687290594 1.6629466211 -1.557710698
H 2.2457325698 1.3898742243 -0.8742015428
H -2.24459307 -1.3898549933 -0.875972737
H -0.5663879998 -1.6629093335 -1.5566762503
H -1.2222459817 0.449980654 1.8986798501
H -1.5020850628 1.66322744 0.6571255968
H -2.6127704527 0.2900093593 0.8141875891
*
