! r2scan-3c def2/J RI DEFGRID2 scfconv6 printgap
%output
    printlevel normal
end
* xyz 0 1
C -2.1040997433 -0.8906892041 -0.4077352613
C -1.2451796163 -0.3237652955 0.7394574395
H -1.886171991 -0.378158157 1.6310068708
C -0.7728737885 1.1311864435 0.6145596
H -1.6132144938 1.7790493833 0.3416533922
C 0.3585421851 1.3242504987 -0.4211246136
H 0.8010183043 2.3114052051 -0.2261253639
C 1.4844910196 0.2934294511 -0.1625001274
H 2.0556312837 0.1553896617 -1.0873418
C 1.0001724537 -1.1129808744 0.2690036941
H 1.7957597126 -1.54049826 0.8977326944
O -0.1318194791 -1.1443749373 1.0993049032
O 0.8205487223 -1.9127139249 -0.8757315115
O 2.3836194148 0.7790439933 0.8051159181
O -0.0813279054 1.3839290529 -1.7385686605
O -0.3063249897 1.5519877459 1.8854773461
O -1.5340997134 -0.8853043205 -1.6877246597
H -3.0121436984 -0.2866738712 -0.4765457593
H -2.385668669 -1.9146063565 -0.1237010432
H 0.7152758049 -2.8332141389 -0.6052844647
H 1.8911988047 1.2888069174 1.4633606139
H -0.6664603852 0.6246847709 -1.9333008897
H -0.0263647179 0.7671179077 2.3759600781
H -0.6923822626 -1.3851754531 -1.6553284974
*
