! pbe def2-sv(p) def2/J RI DEFGRID1 loosescf d4 GCP(DFT/SV(P)) printgap
%output
    printlevel normal
end
* xyz 0 1
C -2.0267997325 -0.5962829052 -0.6639148924
C -1.203062859 -0.0643846051 0.5369153028
H -1.853927 0.0174150097 1.4163003428
C -0.6257728824 1.332906962 0.2686926325
H -1.3643297121 1.8997529837 -0.3194897728
C 0.698027219 1.2897721721 -0.5365982213
H 1.1578671533 2.2877812209 -0.4729859632
C 1.6580718487 0.2686187564 0.1013655441
H 2.5436328999 0.1560616118 -0.531968957
C 0.9416556473 -1.0940120848 0.1912485915
H 1.5712961236 -1.7977163482 0.7606749516
O -0.2279599548 -1.0081024034 0.9552641544
O 0.7170754495 -1.5739123569 -1.1061614123
O 2.1056955302 0.6803950343 1.3600422208
O 0.4727318292 1.0347280206 -1.8948312783
O -0.4329997106 1.9363204952 1.5319047904
O -2.0197218554 -2.0040529103 -0.7085937407
H -1.6036363538 -0.2627395069 -1.6128846767
H -3.0524161926 -0.2131022777 -0.5865171168
H -0.0766319247 -2.1394647478 -1.089531999
H 1.3295928095 0.7921084926 1.9318053977
H 0.557293423 0.0753276619 -2.0342021691
H -0.0585576537 2.8168387127 1.4101538455
H -2.2616687608 -2.3409612886 0.1629794243
*
