! pbe def2-sv(p) def2/J RI DEFGRID1 loosescf d4 GCP(DFT/SV(P)) printgap
%output
    printlevel normal
end
* xyz 0 1
C 3.4890575784 -0.4771568266 -0.3692117618
C 2.1958100267 -0.351842851 0.4332458736
H 2.4538135296 -0.383345954 1.4970863817
C 1.2325877629 -1.5115762264 0.137144718
C 0.2713268207 -1.1660347535 -0.9963423571
C -0.6588952491 0.017595217 -0.6564970065
H -0.7626323888 0.6286197414 -1.5647188627
C 0.0033666142 0.9247026272 0.3992922526
H -0.1671944525 0.5405372952 1.4077570122
C 1.5121453184 0.9872717134 0.1345892837
O -0.5508403775 2.2231463586 0.4249967817
C -2.0883654715 -0.4507349131 -0.3044514172
C -2.1777087572 -1.2689627389 0.9815421492
C -3.0598549114 0.7270488781 -0.2347049283
H 4.1352816555 0.3782002729 -0.1839736227
H 4.0277760781 -1.3798887886 -0.0894845205
H 3.2760857872 -0.5213842781 -1.4352075879
H 1.8046001677 -2.4018763074 -0.132068824
H 0.6623695677 -1.7491790113 1.0348788028
H 0.8592580226 -0.9259400123 -1.8845413628
H -0.3312628983 -2.0422973017 -1.2421851346
H 1.6700094421 1.2616120939 -0.9125154884
H 1.9458164603 1.7769631453 0.7511317351
H -0.4417228033 2.6181966285 -0.4477550896
H -2.4096876714 -1.0978997748 -1.1317556074
H -1.5291433616 -2.1398017055 0.9419332784
H -3.1993318658 -1.6174188082 1.1196468735
H -1.9114511369 -0.6675604911 1.8466607748
H -3.0684969298 1.2759125511 -1.1745021777
H -2.7751051787 1.4103041614 0.5598899744
H -4.0687621775 0.3686577189 -0.0414809004
*
