! pbe def2-sv(p) def2/J RI DEFGRID1 loosescf d4 GCP(DFT/SV(P)) printgap
%output
    printlevel normal
end
* xyz 0 1
C -1.9970845057 -0.638817375 -0.666589291
C -1.164086464 -0.1039184789 0.5213159773
H -1.8102454242 -0.0604943933 1.4055567352
C -0.6338674658 1.3222701439 0.2470749331
H -1.3858037702 1.8385975197 -0.3648418374
C 0.7109585046 1.3100658678 -0.5114904458
H 1.1642184743 2.3061930293 -0.3964809678
C 1.6692152343 0.2821672543 0.126981103
H 2.6049839908 0.2611643442 -0.4426656631
C 1.012036176 -1.1050845753 0.1230190005
H 1.6449405576 -1.8179250335 0.671982618
O -0.1553830977 -1.0312719679 0.9158644974
O 0.8168436951 -1.637568978 -1.1356031126
O 1.9512798139 0.6564017042 1.4565646935
O 0.5636645717 0.9893870946 -1.8796791674
O -0.5224116719 2.0839041434 1.4201567264
O -2.2781609707 -1.9998111873 -0.5323947056
H -1.4784323496 -0.4425838231 -1.6166023781
H -2.9584052118 -0.1197643575 -0.6834257266
H 0.6230116356 -0.9228210111 -1.7628749248
H 1.4655493316 0.0572839561 2.0428369296
H 0.1010292512 1.7072505142 -2.3258772543
H 0.3024230571 1.8441391402 1.8689039395
H -1.4387805895 -2.4575126229 -0.3812070859
*
