! pbe def2-sv(p) def2/J RI DEFGRID1 loosescf d4 GCP(DFT/SV(P)) printgap
%output
    printlevel normal
end
* xyz 0 1
C -3.3194691544 0.458138694 0.2538393161
O -2.1419342978 0.3521764255 -0.535189443
C -1.0534131592 -0.1976449403 0.0269974543
O -1.0312798741 -0.6237462924 1.1510046405
C 0.0940293643 -0.1666070638 -0.9618524761
C 1.0785384064 -1.3234273395 -0.7658415461
C 1.8918730852 -1.1833083258 0.5182280908
C 2.6121475723 0.1597570165 0.557965061
C 1.5984729346 1.2945639076 0.455612149
C 0.8181108665 1.1857099146 -0.8499707912
H -4.1197644899 -0.0833255608 -0.2506225287
H -3.5832277995 1.5125309552 0.3407635546
H -3.1420343996 0.0316122009 1.2429944982
H -0.3569283398 -0.2324239353 -1.9577093022
H 0.5308587504 -2.2679199766 -0.7523535549
H 1.7562017181 -1.3389351737 -1.6235136457
H 1.2224503802 -1.2593487125 1.3744490998
H 2.6151147436 -1.9994226586 0.5772694385
H 3.178858444 0.2492513187 1.4865104096
H 3.3178227803 0.2255369136 -0.2745476832
H 0.910760596 1.2372620163 1.3011624624
H 2.1065273549 2.2606067904 0.4970112074
H 0.0902080368 1.9960750543 -0.9293555253
H 1.5105772137 1.2721058577 -1.6908395725
*
