! r2scan-3c def2/J RI DEFGRID2 scfconv6 printgap
%output
    printlevel normal
end
* xyz 0 1
C -2.8217818439 0.7801553172 -0.6647571032
O -2.0936953792 0.5234809936 0.5131908741
C -0.8268395931 0.0068518418 0.2835193202
C -0.6327159993 -1.3681638905 0.260096938
C 0.6438035854 -1.8663379961 0.0645826261
C 1.715094337 -1.014258465 -0.1131565934
C 1.5278288982 0.3687385124 -0.0906327202
C 0.2414560426 0.8699115722 0.1024096669
N 2.6034166707 1.2255803189 -0.1904511579
H -2.9798273153 -0.1370408656 -1.2449701633
H -2.3111684314 1.5137152038 -1.3003091758
H -3.7840379877 1.1807335139 -0.3499766618
H -1.4739794802 -2.0278060524 0.4042213053
H 0.8041735642 -2.9343824987 0.0470451197
H 2.7085918543 -1.4109759029 -0.2651117433
H 0.0736270428 1.9370436931 0.1284499583
H 2.4001637197 2.1796158733 -0.4385616071
H 3.443430492 0.8499788371 -0.5983702583
*
