! pbe def2-sv(p) def2/J RI DEFGRID1 loosescf d4 GCP(DFT/SV(P)) printgap
%output
    printlevel normal
end
* xyz 0 1
C -2.3019395708 -1.0137555458 -0.301943523
C -0.9124860187 -0.5449589599 0.1450676972
H -0.807171145 -0.7379221909 1.2270001159
C -0.7346365451 0.9758575914 -0.0930250417
H -1.3468789656 1.2921281598 -0.9495140599
C 0.7412487668 1.2490095128 -0.4478742468
H 0.9638201301 2.3048122777 -0.2638601879
C 1.631342724 0.3607257224 0.4381201803
H 2.6902442454 0.5577906273 0.223044635
C 1.3624604385 -1.1259386481 0.0596120824
H 1.4025581566 -1.7392971596 0.9719966815
O 0.0773343935 -1.268018682 -0.5511117454
O 2.3042678457 -1.6359508962 -0.8028682123
O 1.4228406511 0.5974765126 1.8050108479
O 0.9816144718 1.0137908007 -1.8110041028
O -1.0856279046 1.7128959277 1.0568729427
O -3.3037357943 -0.341810118 0.4246105832
H -2.3741851674 -2.1008602348 -0.1926049601
H -2.4585992082 -0.7600073312 -1.3525413419
H 2.3591618057 -1.0742540389 -1.5886481486
H 0.609602531 1.1120403761 1.9182352918
H 0.6011441314 0.1489330823 -2.0284094764
H -2.0416172629 1.6398068932 1.1743634858
H -3.3448636739 -0.7069427564 1.315965826
*
