! pbe def2-sv(p) def2/J RI DEFGRID1 loosescf d4 GCP(DFT/SV(P)) printgap
%output
    printlevel normal
end
* xyz 0 1
C -1.6275990571 -0.9853943984 -0.9066518379
C -1.2629038847 -0.5631320431 0.5373453946
H -2.096023129 -0.7982333917 1.2086165098
C -0.9338267595 0.9256987239 0.7179890333
H -1.7580558319 1.5513775606 0.364024518
C 0.3328511489 1.3167111282 -0.0728389998
H 0.9018367656 2.0320073416 0.5371250421
C 1.2605970735 0.1285464408 -0.3824128221
H 1.0325016199 -0.2334663489 -1.3968138662
C 1.1044488587 -1.0735836444 0.5677702683
H 1.7630716152 -0.9150488693 1.4438336807
O -0.1796285041 -1.3098256263 1.0830493417
O 1.5505942721 -2.188237632 -0.1558303968
O 2.5848049918 0.6042296058 -0.3425140495
O -0.0877019947 1.9223964132 -1.2774817781
O -0.7865965317 1.2064882532 2.0843867491
O -2.2385246457 0.024877504 -1.6543707228
H -2.3494554408 -1.8049217988 -0.8626810557
H -0.7281252306 -1.3656529021 -1.4083846818
H 1.3310702827 -2.9856538065 0.3404060588
H 3.1790390723 -0.1266017052 -0.549701727
H 0.6873385926 2.2722916987 -1.7317472042
H -0.3018797577 0.4772149281 2.49355596
H -1.6187284542 0.7635469792 -1.7632353201
*
