! pbe def2-sv(p) def2/J RI DEFGRID1 loosescf d4 GCP(DFT/SV(P)) printgap
%output
    printlevel normal
end
* xyz 0 1
C -2.7499943807 0.6607013159 -0.7889129064
C -1.7547948095 -0.1008296625 0.0503556005
O -2.0782653153 -0.7543947199 1.0094361748
C -0.3093019988 0.0413269077 -0.3930539502
C 0.4598313868 -1.2645220423 -0.1823376375
C 1.9311791049 -1.0929122737 -0.5430384514
C 2.5604567223 0.0219454388 0.2861219814
C 1.8022210585 1.3286017252 0.0765400955
C 0.3319288832 1.1587063454 0.4450675625
H -3.7264445165 0.6626627521 -0.3119960335
H -2.4093498173 1.68136331 -0.9454117087
H -2.8299497551 0.1782364604 -1.7617457578
H -0.2740665898 0.3265915356 -1.4491485118
H 0.363281116 -1.561010713 0.8634312653
H 0.0138024139 -2.0522366646 -0.7939073074
H 2.4625777589 -2.0308680951 -0.3712487494
H 2.0195278515 -0.8488298625 -1.6048631884
H 2.5260050297 -0.2500629963 1.3432105742
H 3.6080239507 0.150322669 0.0060812837
H 2.2422216116 2.1188055744 0.688337864
H 1.8822705126 1.6315559484 -0.9703939583
H 0.2461395964 0.8970221114 1.5017708893
H -0.2031147654 2.0981015417 0.2859519631
*
