! pbe def2-sv(p) def2/J RI DEFGRID1 loosescf d4 GCP(DFT/SV(P)) printgap
%output
    printlevel normal
end
* xyz 0 1
C -2.544761608 1.0056203275 -0.0001968923
C -1.2317055637 0.2832293641 0.0002538506
C -1.2004037303 -1.1084080868 0.0003477736
C 0.0058738195 -1.7809970841 -4.23169e-05
C 1.1999143908 -1.0806116168 -0.0002672048
C 1.1794955577 0.3073081664 -0.0001613063
C -0.0369938569 0.982071443 3.8386e-06
O 2.3226021663 1.0485657443 0.000193358
H -2.3975098739 2.0821848761 0.0104472497
H -3.1212059351 0.7411843653 -0.8858864855
H -3.1315168278 0.724686836 0.8734505754
H -2.1276371237 -1.6621851838 0.0004877281
H 0.023004418 -2.8610035787 -0.000200081
H 2.144897126 -1.6081501381 -0.0005636941
H -0.023917596 2.0610027855 0.0001999347
H 3.0893329624 0.4630844165 -0.0002626765
*
