! pbe def2-sv(p) def2/J RI DEFGRID1 loosescf d4 GCP(DFT/SV(P)) printgap
%output
    printlevel normal
end
* xyz 0 1
C -2.2797840565 -0.9649529202 -0.303912602
C -1.1469994407 -0.2159465316 0.4112382601
H -1.5486436971 0.2204982528 1.3357460905
C -0.5626950351 0.9014294848 -0.4639455156
H -0.4044401878 0.5245924083 -1.4826590628
C 0.7871472755 1.3320161616 0.134146528
H 0.6701307968 1.566739505 1.1988702639
C 1.7792051069 0.1598501284 0.0264607835
H 2.2693460614 0.1972986144 -0.9587851843
C 1.0299460973 -1.193309066 0.0981442847
H 1.6532053163 -1.9141955364 0.6553995948
O -0.1511550571 -1.1498871558 0.839867811
O 0.8287244486 -1.6259605162 -1.2170110977
O 2.7119306948 0.2962485631 1.0633211219
O 1.2636350069 2.508447319 -0.4504726939
O -1.4526434507 1.9741908793 -0.5945198816
O -2.8576251797 -1.9342329819 0.5289407647
H -1.8860208928 -1.4270961529 -1.2220027977
H -3.0653951046 -0.2579376161 -0.5768017497
H 0.3518267899 -2.4656001751 -1.2067861272
H 3.4378356171 -0.3249099629 0.9377704979
H 1.2963364207 2.3989072171 -1.4086893058
H -1.3916493874 2.5341025057 0.1891623045
H -2.1397220041 -2.372087006 1.0044778005
*
