! pbe def2-sv(p) def2/J RI DEFGRID1 loosescf d4 GCP(DFT/SV(P)) printgap
%output
    printlevel normal
end
* xyz 0 1
C -2.8286774254 -0.5888788216 0.0109300545
O -1.5021574841 -0.8813097677 0.4414570319
C -0.5443411829 -0.0745521442 -0.027342458
O -0.7349405129 0.8477851311 -0.7637529675
C 0.7986444023 -0.5229354212 0.5253784326
Cl 2.1004366623 0.5190520055 -0.071136173
H -3.4670974091 -1.3353272502 0.475349246
H -2.8945084047 -0.6478753782 -1.0768476123
H -3.1159643813 0.4151826159 0.3278253937
H 1.0013768994 -1.5475781789 0.2122070612
H 0.7832210702 -0.4721883 1.6145379989
*
