! pbe def2-sv(p) def2/J RI DEFGRID1 loosescf d4 GCP(DFT/SV(P)) printgap
%output
    printlevel normal
end
* xyz 0 1
C -1.4123129526 -0.8673921901 0.2179442323
S 2.42011e-05 0.1635821334 -0.4258590075
O 0.0001250207 1.3702559131 0.4009231222
C 1.4121212748 -0.8678442321 0.2179421414
H -1.9587228092 -0.2457818746 0.9186125052
H -1.0733419811 -1.7743049875 0.7022505468
H -2.0453425459 -1.1171332386 -0.6270952143
H 1.0726567642 -1.7685215614 0.7134146683
H 1.9659607132 -0.2421295661 0.909114966
H 2.0383196725 -1.1283377061 -0.6289186204
*
