! pbe def2-sv(p) def2/J RI DEFGRID1 loosescf d4 GCP(DFT/SV(P)) printgap
%output
    printlevel normal
end
* xyz 0 1
C -1.8092320243 -1.3582740859 -1.7627e-06
C -0.4715593425 -1.7062276689 -5.993e-07
C 0.5075197599 -0.726162804 6.9926e-06
C 0.1352912186 0.6161655255 1.15866e-05
C -1.201785905 0.9690285075 4.0261e-06
C -2.1832330473 -0.0181582024 -1.18e-06
O -3.4782692266 0.3758484967 1.13e-07
Cl 1.3346884692 1.8494346238 -5.1258e-06
Cl 2.1727849299 -1.172927601 -1.315e-06
H -2.564437289 -2.131527422 6.73e-07
H -0.1798295641 -2.7441889609 3.846e-07
H -1.4973866299 2.0050302544 7.153e-07
H -4.0617383915 -0.3930793869 -4.1827e-06
*
