! pbe def2-sv(p) def2/J RI DEFGRID1 loosescf d4 GCP(DFT/SV(P)) printgap
%output
    printlevel normal
end
* xyz 0 1
C -1.9581122837 0.4587458641 -0.062634914
C -0.8907218022 -0.6108153326 0.1249057755
C 0.5598461711 -0.1662683779 0.0241047118
O 1.4749483183 -0.949274512 0.1554810975
N 0.7794419488 1.1456069135 -0.2189721199
H -2.9430151208 0.0062449206 0.0319634815
H -1.8769968661 1.2357751238 0.6954223801
H -1.895327499 0.9109695839 -1.0508336268
H -1.0220698005 -1.4030952812 -0.6159999519
H -1.0013975643 -1.0806031611 1.1052141227
H 0.0387922781 1.8118751254 -0.3308846138
H 1.7323949449 1.4607983135 -0.2892765624
*
