! r2scan-3c def2/J RI DEFGRID2 scfconv6 printgap
%output
    printlevel normal
end
* xyz 0 1
C -1.7517850511 -0.7960235037 -0.0395764898
C -0.4892003534 0.0053750648 -0.3404650598
C -0.635529399 1.4518752707 0.1226130258
C 0.7251865186 -0.6434179563 0.3276641146
O 1.8964257455 0.0003350484 -0.1281748593
H -1.9339418758 -0.8281344396 1.0329046709
H -1.6606881569 -1.8169944123 -0.4037394328
H -2.611353863 -0.3352508044 -0.5196908344
H -0.3049253776 0.0010180664 -1.4192505451
H -0.8562309624 1.4884192418 1.187774922
H -1.4417040316 1.9445559169 -0.4154412574
H 0.2894410412 1.9912652329 -0.0609244359
H 0.6361816381 -0.5528310381 1.4204688397
H 0.7564076192 -1.7135626558 0.073323249
H 2.6600315056 -0.396029484 0.3022344747
*
