! pbe def2-sv(p) def2/J RI DEFGRID1 loosescf d4 GCP(DFT/SV(P)) printgap
%output
    printlevel normal
end
* xyz 0 1
C -2.3248525337 -0.8626712907 0.6213856587
C -0.8863902474 -0.3427026945 0.7934599783
H -0.7029971631 -0.0786454382 1.8471990799
C -0.6742403017 0.9051698784 -0.0735431149
H -1.0415129518 0.6833092272 -1.0841662917
C 0.8171683852 1.312065827 -0.1541227077
H 0.9800865294 2.1777185321 0.5054240717
C 1.7528109997 0.1941065656 0.327823594
H 2.7377628613 0.3562744623 -0.1366094323
C 1.2010576909 -1.1529720397 -0.1563776769
H 1.843123049 -1.9864369597 0.1660724781
O -0.0459070103 -1.4322863014 0.4335732186
O 1.1563252433 -1.2123642858 -1.5427409016
O 1.8302783166 0.2719680238 1.728628816
O 1.1834195082 1.6244788602 -1.4823304695
O -1.4630849108 1.9763881134 0.378016316
O -2.5254520285 -1.3442498815 -0.6759313785
H -3.0350917424 -0.04815454 0.7756980101
H -2.5027825489 -1.6524394338 1.3641400919
H 1.0165141079 -0.3254250306 -1.9110017636
H 2.3367932461 -0.4782518111 2.0597650096
H 0.6370270555 2.3587838267 -1.7867831249
H -1.2768742674 2.1337495908 1.3117330062
H -1.7803938048 -1.9296083433 -0.8757332112
*
