! pbe def2-sv(p) def2/J RI DEFGRID1 loosescf d4 GCP(DFT/SV(P)) printgap
%output
    printlevel normal
end
* xyz 0 1
C -2.2193236485 -1.0714194953 0.3190601817
C -0.9499577657 -0.3887522015 0.8725256972
H -1.110462053 -0.1810591265 1.9402472889
C -0.7268759002 0.9484374721 0.1324417688
H -1.2614189129 0.8751698129 -0.8254673424
C 0.7458380119 1.3199591945 -0.1932563531
H 1.0104377677 2.2234852702 0.376169952
C 1.7738448887 0.225026 0.1621284268
H 2.6613820278 0.3878183686 -0.4570597987
C 1.1294969297 -1.1325675085 -0.1365165974
H 1.8287217576 -1.9563411927 0.0587219634
O 0.1237750785 -1.3295259716 0.8308550481
O 0.6712701595 -1.2491993838 -1.4410662461
O 2.165550339 0.2885487867 1.5037913343
O 0.892396093 1.5531676141 -1.5822572782
O -1.3709458844 1.9974979673 0.8135419988
O -2.1665176355 -1.2459227074 -1.0670649732
H -3.0867813358 -0.4401961923 0.5242711035
H -2.3375178013 -2.0335614625 0.8360936841
H 0.6219398141 -0.3704240976 -1.8542110169
H 1.5746296803 -0.2875816437 2.0113721001
H 0.3406786129 2.3018294677 -1.8373817555
H -0.9895728965 2.0973507172 1.6942855701
H -1.3175337569 -1.6641744115 -1.2910135339
*
