! pbe def2-sv(p) def2/J RI DEFGRID1 loosescf d4 GCP(DFT/SV(P)) printgap
%output
    printlevel normal
end
* xyz 0 1
C -2.0886354661 -1.2328274653 -0.1756546774
C -1.2349400301 -0.3818822397 0.7904800412
H -1.8168847755 -0.2467029224 1.709959286
C -0.9164958998 0.9977226998 0.182968916
H -1.2382044096 1.0138588435 -0.8652780596
C 0.5910466793 1.297261361 0.2248701299
H 0.9188355979 1.4162075395 1.2727130731
C 1.3661680582 0.1284859492 -0.3859871772
H 1.0566503048 0.023837735 -1.4336547366
C 1.0149489303 -1.1698152889 0.3787292334
H 1.860762381 -1.4177044953 1.0385554494
O -0.0683258393 -1.0591242792 1.2520030124
O 0.8292637997 -2.1930181061 -0.5704003143
O 2.7403349276 0.3895391706 -0.2852612622
O 0.862485247 2.4617894094 -0.5045742801
O -1.6309140725 2.0417785418 0.8004429553
O -1.6183894449 -1.251852317 -1.4920971197
H -3.0876084893 -0.7929855027 -0.2187683703
H -2.1670320775 -2.2494943728 0.2363721613
H 0.6528125218 -3.0226530513 -0.1084807765
H 3.2127321545 -0.1157611344 -0.9544438994
H 0.1515992786 3.0914746271 -0.3219345599
H -1.3934808359 2.0775287613 1.7357306379
H -0.731554292 -1.6517342496 -1.4938209594
*
