! r2scan-3c def2/J RI DEFGRID2 scfconv6 printgap
%output
    printlevel normal
end
* xyz 0 1
C 0.9771860293 -2.1013492612 0.3802124493
C 0.3440657199 -0.843908318 -0.1919826865
H 0.0832365091 -0.9827696956 -1.2441538879
C -0.8816952869 -0.4278401057 0.6025565983
Cl -1.7311727538 0.9260095629 -0.185987687
Cl 1.5456689009 0.4889349453 -0.1552791264
H 0.2786324236 -2.9321079976 0.3089341498
H 1.8766115887 -2.3526569456 -0.1749606854
H 1.2437651439 -1.9521528939 1.423515164
H -1.5891069891 -1.2558654894 0.6625704346
H -0.606150455 -0.0985628182 1.6045069194
*
