! pbe def2-sv(p) def2/J RI DEFGRID1 loosescf d4 GCP(DFT/SV(P)) printgap
%output
    printlevel normal
end
* xyz 0 1
C -2.893334639 -0.5783424681 0.4388703801
C -1.6765689431 -0.5108863099 -0.4896765005
H -2.0384215655 -0.6021052148 -1.5198924787
C -0.6685460793 -1.6346771361 -0.2148787763
C 0.1343862404 -1.4095870493 1.0629747512
C 0.8624491638 -0.0625289272 1.0287866522
H 1.3720324368 0.0835155679 1.9922182443
C -0.2101853921 1.0351809692 0.9030989479
C -1.0019070495 0.8409419817 -0.3650457451
O -1.0904302611 1.6900989347 -1.2175295437
C 1.932146807 0.0430889373 -0.0429461802
C 2.5508972922 -1.0044508512 -0.5659395311
C 2.327555465 1.4323564294 -0.449958818
H -2.6023973865 -0.5514802922 1.4853708218
H -3.5611155934 0.2582711998 0.2447470128
H -3.4394979959 -1.5020671498 0.2599626517
H -1.2036712471 -2.5851151431 -0.1533260539
H 0.0208328195 -1.6920225364 -1.0589715161
H -0.5314289164 -1.4257784408 1.9284103703
H 0.846562378 -2.2241555819 1.196269297
H -0.8906820472 0.9538602479 1.7530485856
H 0.2247133163 2.0335769637 0.913523433
H 3.3319848136 -0.8767730997 -1.2965369548
H 2.3270754474 -2.0233642891 -0.3058354428
H 2.5350292717 2.0468251122 0.4253075835
H 3.2184715513 1.4049280175 -1.0718691577
H 1.5300996921 1.9063911782 -1.0202645913
*
