! r2scan-3c def2/J RI DEFGRID2 scfconv6 printgap
%output
    printlevel normal
end
* xyz 0 1
C 2.2029897539 1.0176530843 -0.3998288762
C 1.1582101605 -0.077065496 -0.2406337696
C 1.5808641059 -1.1361692993 0.7717938395
O -0.054524563 0.5577715637 0.2008278392
C -1.2106209118 -0.0362382441 -0.09701667
O -1.3059450694 -1.0579505838 -0.7250680269
C -2.3731246841 0.7418988946 0.4653615269
H 3.1320462649 0.5893648923 -0.7643584223
H 1.8582920901 1.7682810686 -1.106171522
H 2.3834867165 1.4985189139 0.5581160255
H 0.9512307827 -0.5576595429 -1.2058268068
H 0.8112536926 -1.8999897317 0.8532041529
H 1.7323061386 -0.6798007093 1.7474793828
H 2.5062775336 -1.6051256475 0.4501617611
H -2.6439872609 0.3104483178 1.4272310454
H -3.2256970887 0.65600719 -0.2017995906
H -2.0960063282 1.7812570375 0.6091823652
*
