! pbe def2-sv(p) def2/J RI DEFGRID1 loosescf d4 GCP(DFT/SV(P)) printgap
%output
    printlevel normal
end
* xyz 0 1
C -2.1842646949 -1.0030606558 -0.4815059429
C -1.2223967209 -0.1753248764 0.3799075999
H -1.7714691542 0.218188654 1.243106014
C -0.6298300166 1.0098703913 -0.3858934762
H -0.498809504 0.7493743039 -1.4499398829
C 0.7527923273 1.3234408926 0.1950875964
H 0.6787868749 1.4365403556 1.2873415212
C 1.6791065482 0.1459449141 -0.1122396477
H 1.8741718129 0.1270486518 -1.1951816318
C 0.9743882256 -1.1826636615 0.2484792475
H 1.6089366484 -1.7448490591 0.9565410519
O -0.2214599978 -1.0217792295 0.9531681848
O 0.8124739379 -1.8937958735 -0.9435523625
O 2.8721929348 0.3490017845 0.6047512021
O 1.2149957023 2.5152413289 -0.3896212877
O -1.5008415504 2.0982943383 -0.2622105092
O -2.7134278213 -2.0816556112 0.2471719857
H -1.6554268376 -1.3676123603 -1.3748177761
H -3.018508808 -0.3734653487 -0.7966027456
H 0.3300445848 -2.7120747717 -0.7682671807
H 3.5010791275 -0.3471328771 0.3860500275
H 2.1271599779 2.6427030316 -0.1045808959
H -1.0017625913 2.886794422 -0.5151543116
H -2.0286209284 -2.3734502581 0.8636059182
*
