! r2scan-3c def2/J RI DEFGRID2 scfconv6 printgap
%output
    printlevel normal
end
* xyz 0 1
C 3.7479862702 -0.2261127022 -0.0658573516
C 2.2884341339 -0.1687945882 0.3754675486
H 2.2538295152 0.0314317156 1.4527396678
C 1.5675644296 -1.483204642 0.0988294496
C 0.1190280458 -1.3964594897 0.5620997208
C -0.6785128601 -0.2826230664 -0.1308695664
H -0.7256051634 -0.4778171917 -1.2068168748
C 0.0644613796 1.0536835655 0.0448484444
H -0.0033611831 1.3600046579 1.1036855845
C 1.5422085446 0.9404768936 -0.3554664054
O -0.5413917618 2.0343266222 -0.7780266229
C -2.1210278656 -0.2768987553 0.4281282439
C -2.9318696586 0.9620423401 0.0538154097
C -2.8887576305 -1.5088444475 -0.0581854127
H 3.8139013165 -0.4224401266 -1.1339639405
H 4.2504407379 0.7161907277 0.1414525565
H 4.274024083 -1.0188239712 0.461186407
H 1.6013095849 -1.6963030112 -0.9718946854
H 2.0679909296 -2.3025545546 0.6198083601
H -0.3640167685 -2.3557794849 0.3795941693
H 0.1039423696 -1.2165332786 1.640585827
H 1.5832579891 0.7524893338 -1.4317528038
H 2.0289128882 1.903161065 -0.1664585456
H -0.0003319841 2.830833599 -0.7511346706
H -2.0543878101 -0.3196865552 1.522371662
H -3.959044625 0.8427990287 0.3944279643
H -2.9341111717 1.1033354532 -1.022904687
H -2.5246433223 1.8575126219 0.5104548577
H -3.9033654098 -1.4918558441 0.3338807059
H -2.4253075387 -2.4364820949 0.2652910225
H -2.9445702392 -1.5099956038 -1.144662836
*
