! pbe def2-sv(p) def2/J RI DEFGRID1 loosescf d4 GCP(DFT/SV(P)) printgap
%output
    printlevel normal
end
* xyz 0 1
C -3.6321907488 -0.2367888878 0.0031073167
C -2.142583704 -0.0692085254 -0.0040113587
C -1.5562034952 1.1874781652 0.0011859555
C -0.1792845307 1.3270252165 0.003841821
C 0.6536291505 0.2172818119 0.0015791605
C 0.0642934784 -1.0418855943 -0.003344254
C -1.3095231791 -1.1821083553 -0.0060001309
C 2.1537056771 0.3818771208 0.002951551
C 2.7689744367 -0.2253458821 -1.2596701954
C 2.7691047993 -0.2394112808 1.2586054934
H -4.1323776672 0.7172500159 -0.1439459083
H -3.9442869593 -0.9211903741 -0.7843027171
H -3.9598207331 -0.6541706853 0.9554137029
H -2.1814680042 2.0695257705 0.0025078691
H 0.2535294615 2.3180884851 0.0070595318
H 0.6830898463 -1.9272996182 -0.0060199041
H -1.7467542444 -2.1710299858 -0.0104562867
H 2.3783156799 1.454670413 0.0089640109
H 2.5994443108 -1.2986674802 -1.2942646288
H 3.8420416802 -0.0466563638 -1.2798515902
H 2.3264331434 0.220188945 -2.148085092
H 2.3272039809 0.1966174384 2.152052809
H 3.842268788 -0.0614226843 1.280231978
H 2.5992229125 -1.3129824746 1.2816060298
*
