! pbe def2-sv(p) def2/J RI DEFGRID1 loosescf d4 GCP(DFT/SV(P)) printgap
%output
    printlevel normal
end
* xyz 0 1
C -4.0822787872 0.0002820048 1.54545e-05
C -3.3974744186 -0.9358857484 -0.7547776758
C -2.0122660032 -0.9299840868 -0.7502319681
C -1.2973492086 -5.1808e-06 3.82213e-05
C -2.012100264 0.9300784431 0.7503815045
C -3.3973046288 0.9362292202 0.7549119049
Cl -1.1425057626 2.081093547 1.6962672993
C 0.181976322 -2.27428e-05 -7.9243e-06
C 0.8989423366 -0.9298940916 0.7494268627
C 2.2841197774 -0.9407530644 0.7579063431
C 2.9641046146 4.55814e-05 -4.89325e-05
C 2.2840595733 0.9408154742 -0.7579922599
C 0.8988868276 0.9298789554 -0.7494663187
Cl 0.0382734588 2.0818779564 -1.6946509107
Cl 4.6837103225 2.92739e-05 -8.70676e-05
Cl 0.038438407 -2.0820583373 1.694479819
Cl -1.1429069237 -2.0812347512 -1.6960623783
H -5.161033048 0.0004472636 -3.75162e-05
H -3.9268217047 -1.6662568525 -1.3450673621
H -3.9265293116 1.6666439476 1.3452236452
H 2.8200059444 -1.6680896976 1.3453363164
H 2.8198845734 1.6681854953 -1.3454320541
*
