! pbe def2-sv(p) def2/J RI DEFGRID1 loosescf d4 GCP(DFT/SV(P)) printgap
%output
    printlevel normal
end
* xyz 0 1
C -3.4637178503 -0.4646535393 -0.1372732715
O -2.2302301489 -0.0485365603 -0.7070900147
C -1.2013762617 0.0857654416 0.1409507653
O -1.2914092202 -0.111031341 1.3243691959
C 0.0631200219 0.4683672168 -0.5992965641
C 0.8055579583 -0.8368847801 -0.956985959
C 1.6970655435 -1.2604353956 0.2032847718
C 2.8441695248 -0.2590988094 0.3865816084
C 2.4182421058 1.1565723857 -0.0197503171
C 0.9392683482 1.3770235617 0.2741853336
H -3.7680973387 0.2265445872 0.6511041629
H -3.3651681509 -1.4639350753 0.2917498232
H -4.1888348498 -0.466640271 -0.9468046534
H -0.2340938171 0.9707451947 -1.523227813
H 0.080576533 -1.6192686637 -1.1910920648
H 1.4149161959 -0.6762626879 -1.8477882287
H 1.0890000909 -1.3058888628 1.107809802
H 2.0994919979 -2.2587924433 0.0239916626
H 3.1594918596 -0.2648319797 1.4309663896
H 3.7029038944 -0.5616256885 -0.2160769314
H 3.0158479751 1.8922364935 0.5206226226
H 2.5958618694 1.3125074144 -1.085783112
H 0.7429528205 1.1496439056 1.3237058391
H 0.6707661722 2.4208458705 0.1028885783
*
