! pbe def2-sv(p) def2/J RI DEFGRID1 loosescf d4 GCP(DFT/SV(P)) printgap
%output
    printlevel normal
end
* xyz 0 1
C 1.221049861 0.91018137 -1.3483789684
C 2.592033151 1.023905363 -1.4769730257
C 3.4318653449 0.4398474415 -0.5401426426
C 2.8871620109 -0.2653306242 0.5309012118
C 1.5127505895 -0.383296596 0.655167271
C 0.6728323453 0.2044803952 -0.2826158806
C -0.7932545899 0.0742879433 -0.1440150841
C -1.5898787902 1.2027064478 0.0540419431
C -2.9721550588 1.0783543765 0.1824711894
C -3.5684844207 -0.1706362956 0.1121863725
C -2.7869690361 -1.2979525827 -0.0850461695
C -1.4039910957 -1.178692377 -0.2118407199
Cl -0.4465627056 -2.5797747158 -0.4873732704
Cl -3.5330908276 -2.8403362459 -0.1748696325
Cl -3.9457664107 2.4691644218 0.4302600545
Cl -0.8560233901 2.7527459736 0.1742912648
Cl 3.9123324715 -0.9947638848 1.7051474078
Cl 5.1375310482 0.5887231945 -0.7057538485
H 0.5728056112 1.3603573407 -2.0836362479
H 3.020978767 1.5664460163 -2.3042691742
H 1.1002474109 -0.9255775143 1.4911838311
H -4.637535253 -0.2650510991 0.210810867
*
