! pbe def2-sv(p) def2/J RI DEFGRID1 loosescf d4 GCP(DFT/SV(P)) printgap
%output
    printlevel normal
end
* xyz 0 1
C -3.0317378049 0.8791551869 0.4006624799
O -1.9052414647 0.6153222981 -0.4224002548
C -1.0418847037 -0.3019158535 0.0364825837
O -1.2037348121 -0.8924268217 1.0714698146
C 0.1084185915 -0.4950371142 -0.9379785135
C 1.1014808341 -1.5531211195 -0.4343361913
C 2.3449536927 -0.9162686746 0.1906623683
C 1.9380313425 0.2999477642 1.0139133877
C 1.4032665105 1.4119337641 0.1013460254
C 0.8079243646 0.8451741691 -1.1916423443
H -3.6058072272 -0.0354363555 0.5629082069
H -3.6294220211 1.6175862944 -0.1274956614
H -2.7115459072 1.2674593031 1.3698667512
H -0.3539097398 -0.8268945378 -1.8740710642
H 0.595541591 -2.1608903472 0.3182785363
H 1.3969033833 -2.2089947175 -1.2545033983
H 2.8466516482 -1.6492459611 0.8241072765
H 3.0512531927 -0.6128541138 -0.5847734653
H 1.165177624 -0.0091882267 1.7190767043
H 2.785985932 0.6698832024 1.5926277073
H 0.6430731712 1.9844488468 0.6363711297
H 2.2076770047 2.1034576773 -0.1580155172
H 0.0991485367 1.5552762459 -1.6188558446
H 1.5975614644 0.6798545387 -1.9264175543
*
