! pbe def2-sv(p) def2/J RI DEFGRID1 loosescf d4 GCP(DFT/SV(P)) printgap
%output
    printlevel normal
end
* xyz 0 1
C -2.987298032 1.2318201424 0.0004257515
C -1.7550577729 0.3766681927 -9.88187e-05
C -1.8324832356 -1.0047233047 -0.0005826431
C -0.6839184121 -1.7801250641 -0.0003570146
C 0.5616498495 -1.1805442811 0.0001106165
C 0.6518849989 0.2217029707 0.0001165808
C -0.5002950958 0.9834327299 0.0002214352
O 1.9412614893 0.7131993392 -0.0001530837
C 2.1177962384 2.1061200707 -0.0003161462
O 1.6894516966 -1.9420757831 0.0005121482
H -3.8835215954 0.6175077491 -0.0039725149
H -3.0087619046 1.8699177117 0.8832677925
H -3.0048323276 1.8770731965 -0.8772495317
H -2.7972836737 -1.489139935 -0.0011863682
H -0.7369679999 -2.8568272823 -0.000580463
H -0.446144768 2.0613362951 0.0004558652
H 3.1948352911 2.2678874439 -0.0017199684
H 1.6838349753 2.5646418571 0.8938895621
H 1.6814159966 2.5648901923 -0.893290091
H 2.4480242086 -1.3429778397 0.0004088646
*
