! pbe def2-sv(p) def2/J RI DEFGRID1 loosescf d4 GCP(DFT/SV(P)) printgap
%output
    printlevel normal
end
* xyz 0 1
C -2.2440322615 -1.0082790329 -0.3532684513
C -1.1702797383 -0.2075510176 0.3944143363
H -1.6311313465 0.235638963 1.2875382922
C -0.5731062353 0.9104095459 -0.4753356771
H -0.3917229537 0.5303703599 -1.4881544217
C 0.7643232737 1.3267642009 0.1657828401
H 0.6035755492 1.4988271105 1.2402538866
C 1.7614482772 0.1670068967 -0.0089197113
H 2.1803269963 0.1913694506 -1.0208951017
C 1.0142549218 -1.1837958202 0.1400345816
H 1.6503835394 -1.869515675 0.7225174804
O -0.1595589479 -1.0848141383 0.9029120886
O 0.7812627594 -1.6795423915 -1.1422550951
O 2.8591177294 0.255688629 0.8524062066
O 1.2369137126 2.5490723748 -0.320374067
O -1.4575602983 1.9845894282 -0.6236686832
O -2.8239362336 -1.9809724602 0.4752134154
H -1.7984077962 -1.4715109032 -1.2455548796
H -3.0406992964 -0.3320594414 -0.6688078004
H 0.3955764975 -2.5627603138 -1.0842414592
H 2.5502009002 0.3652716529 1.7598216573
H 1.3761514707 2.4838627881 -1.2724919993
H -1.3765995288 2.5722561606 0.1376342869
H -2.1110019261 -2.3948248962 0.9789024201
*
