! pbe def2-sv(p) def2/J RI DEFGRID1 loosescf d4 GCP(DFT/SV(P)) printgap
%output
    printlevel normal
end
* xyz 0 1
C 2.0635703851 0.0322485242 -0.1210986217
C 0.7584290639 0.7023084058 0.290838052
C -0.4602632807 0.003305523 -0.3272668755
H -0.3327164324 -0.0549370221 -1.4136926247
C -1.7485713149 0.7626763775 -0.0041878961
O -0.5475719013 -1.3434229521 0.0872774368
H 2.2200952056 0.1349542652 -1.1923400872
H 2.0298615752 -1.0281055206 0.1175263319
H 2.9067298781 0.4821951739 0.3977223649
H 0.7613556539 1.747783992 -0.0215935988
H 0.662000207 0.6780963876 1.3806143825
H -2.6046698792 0.2268808017 -0.4069725746
H -1.8724056551 0.8559909878 1.0741363352
H -1.7214861943 1.7580706274 -0.4384357571
H -0.663608267 -1.3571462964 1.0447321649
*
