! r2scan-3c def2/J RI DEFGRID2 scfconv6 printgap
%output
    printlevel normal
end
* xyz 0 1
C 1.2077894172 1.2598213853 0.0518429467
C 0.4351507634 -3.12181e-05 -0.3427224071
C 1.2090077048 -1.2591449032 0.0516801464
C -0.8913529354 -0.0005316973 0.3684217789
O -1.9679697655 -0.0001571102 -0.1564173137
H 0.6577252982 2.1529300092 -0.2352144498
H 2.1742897521 1.2738751688 -0.4460558814
H 1.3726962824 1.2840449977 1.1271327857
H 0.2548377374 -1.4999e-05 -1.4217451467
H 0.6598004079 -2.1527343881 -0.2355130919
H 1.3738658132 -1.2833755576 1.1269735236
H 2.1755604617 -1.2722168355 -0.4461613562
H -0.7933620003 -0.0013677873 1.4736257262
*
