! r2scan-3c def2/J RI DEFGRID2 scfconv6 printgap
%output
    printlevel normal
end
* xyz 0 1
C 0.7202492429 -0.5621105198 -0.2411984932
C -0.7204140748 -0.5618606385 0.2413682611
Cl -1.0759670164 0.8982955625 1.1793737292
Cl -1.802376689 -0.6668261507 -1.1641011155
Cl 1.0762417779 0.8977532965 -1.1795404208
Cl 1.8021717122 -0.6672380319 1.1642019481
H 0.9150540252 -1.4282935198 -0.8787080911
H -0.9155444358 -1.4278679539 0.8790015923
*
