! pbe def2-sv(p) def2/J RI DEFGRID1 loosescf d4 GCP(DFT/SV(P)) printgap
%output
    printlevel normal
end
* xyz 0 1
C -2.2873935702 -1.0578546795 -0.2106695944
C -0.8924647883 -0.5709877038 0.1988772549
H -0.8027040447 -0.6580475981 1.2965140817
C -0.7087447567 0.9160880736 -0.1840468851
H -1.2109184782 1.1142397777 -1.1402922879
C 0.7802636286 1.2514455654 -0.3786751258
H 0.925027859 2.2935707193 -0.0526602217
C 1.619911779 0.3192001625 0.5010118623
H 2.6929468529 0.5174126079 0.3595163541
C 1.3944631343 -1.1482174473 0.0313927865
H 1.6371631419 -1.8189278048 0.8705844134
O 0.0738809166 -1.3817500599 -0.4170538449
O 2.2458595851 -1.4698748533 -1.0099410865
O 1.3275971108 0.498335483 1.863784613
O 1.0943020878 1.104793116 -1.7429774378
O -1.2179761724 1.7457199175 0.8367866685
O -3.2866265044 -0.3285547751 0.4663272654
H -2.3677976787 -2.1330356723 -0.0206654969
H -2.4411269629 -0.8807504998 -1.276627039
H 1.8629279067 -1.0811869036 -1.8109249342
H 0.5470982011 1.0639958948 1.9478354305
H 2.0042438546 1.3909089529 -1.884757883
H -2.1729161649 1.5934829411 0.8768329426
H -3.316906749 -0.6193369013 1.3852537662
*
