! pbe def2-sv(p) def2/J RI DEFGRID1 loosescf d4 GCP(DFT/SV(P)) printgap
%output
    printlevel normal
end
* xyz 0 1
C -2.3807708017 -0.8939820966 0.4255281699
C -0.9342548785 -0.4281208095 0.6496841409
H -0.6726833907 -0.5175895353 1.7164601728
C -0.7487402981 1.041885079 0.2040458473
H -1.5270278407 1.2895017867 -0.5350110414
C 0.6340026997 1.2358089082 -0.4550108281
H 0.908701256 2.295512348 -0.3336865757
C 1.6546161589 0.360635801 0.2789030682
H 2.6461689974 0.4890802431 -0.1737975372
C 1.2666343245 -1.1285902544 0.0612853548
H 1.6009050861 -1.7122469941 0.9323247408
O -0.1306989915 -1.2911993739 -0.1202406893
O 1.8880021915 -1.657439322 -1.047219739
O 1.757968648 0.6987007304 1.6355682936
O 0.646176205 0.8634725752 -1.8102079422
O -0.8076332711 1.9289233052 1.3037432626
O -2.7333059896 -0.7916126703 -0.9258249317
H -3.0774046733 -0.2627121369 0.9829420003
H -2.4739593299 -1.9286222633 0.7792791532
H 1.5954072731 -1.1422592519 -1.8140015231
H 0.9898728074 1.2293744962 1.8920881824
H -0.0213859555 1.3699167039 -2.287057626
H -1.6879129273 1.8974674697 1.6936422799
H -2.0707608604 -1.2883802452 -1.424179748
*
