! pbe def2-sv(p) def2/J RI DEFGRID1 loosescf d4 GCP(DFT/SV(P)) printgap
%output
    printlevel normal
end
* xyz 0 1
C -2.2515437619 -1.0026435949 0.7479396014
C -0.8045358586 -0.4681788154 0.7522709519
H -0.5455685905 -0.1452174191 1.7694401285
C -0.6209016718 0.7143207466 -0.2023068257
H -0.7462613868 0.3448778528 -1.2345493464
C 0.8051109123 1.2827562495 -0.0681748011
H 0.8137982353 2.0437031261 0.7200831479
C 1.7986545777 0.178203892 0.3440532087
H 2.7658705253 0.3901262812 -0.138229335
C 1.2876296843 -1.1728914882 -0.1789937808
H 1.9847739076 -1.9849582213 0.0992155572
O 0.0626574481 -1.5378288022 0.3749570723
O 1.2255952169 -1.0670384853 -1.5796834423
O 1.9204209268 0.1852475841 1.7410754632
O 1.197580232 1.9249025596 -1.2512192045
O -1.6026066377 1.688928216 0.0711808369
O -2.9281472453 -0.8150618604 -0.4626554038
H -2.7973863635 -0.527335899 1.5717996678
H -2.2095441165 -2.0801764251 0.9179473414
H 0.7246419111 -1.8222480766 -1.913343096
H 2.4800080671 -0.5483794578 2.020762693
H 1.3150296039 1.2463890893 -1.9303854854
H -1.3284181537 2.5095839647 -0.3554121885
H -3.0357698022 0.1372714457 -0.5867118431
*
