! r2scan-3c def2/J RI DEFGRID2 scfconv6 printgap
%output
    printlevel normal
end
* xyz 0 1
C -1.8544703235 0.0926691839 1.1203626531
O -1.2528147171 0.0520542141 -0.1550866388
S 0.3558297026 0.0824134324 -0.1984538602
O 0.8369702641 0.8150710992 0.933081269
O 0.7202050046 0.5013456816 -1.5079814445
C 0.7871598163 -1.6634219669 0.0082138537
H -2.0584788942 -0.9209831417 1.477222165
H -2.7906122712 0.6422064826 1.0275084351
H -1.1878625011 0.6046838743 1.8170509129
H 1.457966067 -1.7392284583 0.8527579279
H -0.12004249 -2.2251928207 0.1805782882
H 1.2681143535 -1.9876172992 -0.9038335039
*
