! pbe def2-sv(p) def2/J RI DEFGRID1 loosescf d4 GCP(DFT/SV(P)) printgap
%output
    printlevel normal
end
* xyz 0 1
C -2.1437004904 -1.2593049652 -0.012265741
C -1.1879828091 -0.3647082599 0.8104465544
H -1.6761944523 -0.1212404787 1.7614014511
C -0.8734841089 0.9490577718 0.067061398
H -1.0703399346 0.8195604481 -1.008352219
C 0.6063234819 1.2904600824 0.2469660262
H 0.8230250233 1.3826510253 1.3229532043
C 1.4417323704 0.1517297132 -0.3421323701
H 1.2308024937 0.0858570378 -1.4213401627
C 1.0411228953 -1.1774384593 0.318409141
H 1.8878254862 -1.5186031107 0.9292579005
O -0.0163330287 -1.062690786 1.2256317945
O 0.7597345687 -2.1070735028 -0.6972280804
O 2.8097952463 0.3554330858 -0.1244129168
O 0.9520461159 2.4759782544 -0.423019336
O -1.6199900336 2.0397366804 0.5656883898
O -1.8193742667 -1.3422591131 -1.3699317343
H -3.1507005019 -0.8354052047 0.0313779083
H -2.1654695728 -2.2537222721 0.4561262669
H 0.6714734416 -2.9854923918 -0.3062790295
H 3.0061816021 1.2613875283 -0.397421913
H 0.2815642008 3.1325783376 -0.1970053687
H -2.5515465771 1.8981442983 0.3692330217
H -0.9072961751 -1.6781140406 -1.4426569526
*
