! r2scan-3c def2/J RI DEFGRID2 scfconv6 printgap
%output
    printlevel normal
end
* xyz 0 1
C -3.1731434983 0.1767467231 -0.0080832762
O -1.9622029083 0.8894971362 0.0056952672
C -0.7923979871 0.1830051925 0.0022972989
C -0.7006792374 -1.2040484365 -0.0027992504
C 0.5521378739 -1.7976040531 -0.0006024819
C 1.7041651066 -1.0418139837 0.0071396867
C 1.6208027777 0.3528306579 0.0106193532
C 0.3670197719 0.9515047306 0.0116221995
N 2.7641738873 1.1245244827 -0.0565666036
H -3.9596183541 0.9302500513 -0.0080987862
H -3.2796699589 -0.455406418 0.8799312758
H -3.2667028004 -0.4422572329 -0.9065950154
H -1.5808718824 -1.826069562 -0.0070923513
H 0.6223144234 -2.8756970913 -0.002109414
H 2.6734854925 -1.5182278226 0.0081995816
H 0.2721702612 2.026529343 0.0156984788
H 2.6670252748 2.0857787377 0.2275956758
H 3.6164277015 0.6825269712 0.2475217515
*
