! pbe def2-sv(p) def2/J RI DEFGRID1 loosescf d4 GCP(DFT/SV(P)) printgap
%output
    printlevel normal
end
* xyz 0 1
C -2.4847822167 -0.4670250642 -0.2899717737
C -1.0664801131 -0.2062420818 0.2273369206
H -1.0307930567 -0.4213025319 1.3103549985
C -0.6343680362 1.2685859393 0.0178467503
H -1.2743721227 1.7380345429 -0.7373298826
C 0.8198937637 1.3095138784 -0.5029600061
H 1.2105566994 2.3211186302 -0.3500493148
C 1.6828716696 0.3160330359 0.3002433122
H 2.6927786504 0.3015755109 -0.1281683047
C 1.0962319836 -1.1099053742 0.1444009712
H 1.0184051578 -1.5699918766 1.1575489279
O -0.1833824904 -1.092736552 -0.4381661951
O 1.9304520815 -1.8498513913 -0.6734256545
O 1.6983487908 0.7324805101 1.648251008
O 0.9002030355 1.0579076766 -1.8739006239
O -0.7954988354 2.0173761771 1.1897464447
O -3.0046004713 -1.7054948649 0.1078528845
H -2.4658595492 -0.4898838918 -1.3811183854
H -3.1249173553 0.3597804406 0.0466064729
H 1.4353751958 -2.6105930601 -1.0026374869
H 2.3868475797 0.2535922516 2.1219170299
H 0.5928661026 0.154242993 -2.0337552617
H -0.0625658023 1.8000410647 1.7840323698
H -3.0471161274 -1.736558158 1.0705514557
*
