! pbe def2-sv(p) def2/J RI DEFGRID1 loosescf d4 GCP(DFT/SV(P)) printgap
%output
    printlevel normal
end
* xyz 0 1
C -3.5115538373 0.5281408257 -0.052750831
C -2.1440070768 0.1377614553 0.5038260658
H -2.2760032111 -0.1779568545 1.5432804486
C -1.1636224192 1.3214823944 0.4643870223
C -0.245940903 1.2281353751 -0.7499934674
C 0.7000077118 0.0299241575 -0.6048518352
H 1.0835220678 -0.2284265762 -1.6005448467
C -0.0886521714 -1.1810056691 -0.1261742092
O 0.4196500496 -2.1683203159 0.345175512
C -1.5833722496 -1.0561393153 -0.2901572831
C 1.9310904197 0.2554515094 0.3107333393
C 3.0236772765 -0.7561846844 -0.037562715
C 2.5127489573 1.6653488479 0.2145367192
H -3.4158531282 0.9152141861 -1.0652679436
H -4.1751301436 -0.333391412 -0.0754458371
H -3.9699158539 1.2961024512 0.5664013233
H -1.7215982754 2.2590501104 0.4426362835
H -0.5485474884 1.3253798829 1.3659346474
H -0.8509016476 1.1120549359 -1.6517098475
H 0.3216934061 2.1485962093 -0.8701938915
H -1.7960195148 -0.9168163761 -1.3522868854
H -2.0571149814 -1.9834026505 0.0349239521
H 1.6225006425 0.0793410051 1.3468943262
H 2.6400504204 -1.7692931669 0.0261954996
H 3.8582686075 -0.6612138848 0.6535754395
H 3.3931567757 -0.5811915855 -1.0468124385
H 1.8473064476 2.410923786 0.641945506
H 2.722435891 1.9266547955 -0.8208716519
H 3.4487581462 1.7039662143 0.7675204611
*
