! pbe def2-sv(p) def2/J RI DEFGRID1 loosescf d4 GCP(DFT/SV(P)) printgap
%output
    printlevel normal
end
* xyz 0 1
C -1.2015344594 -0.9321911001 0.2000953785
C -0.5049801961 0.2527472547 -0.4688678828
C -1.0182762799 1.56623718 0.1190536393
C 1.0428318804 0.1667803181 -0.3518116004
O 1.5306649044 -0.9479387331 0.3530781563
H -2.2607998105 -0.9229689429 -0.0452803554
H -1.1085590639 -0.8814218045 1.2840620277
H -0.7735952236 -1.8701569071 -0.1447794416
H -0.7631400114 0.2325855935 -1.5321349625
H -0.5666036066 2.4161657158 -0.3877106061
H -0.7825555487 1.6316909082 1.1799004277
H -2.0978140693 1.6347664338 0.0049985144
H 1.4881375739 0.0798623806 -1.3452282843
H 1.4237999647 1.0913986895 0.1058501257
H 1.1870273442 -0.9196333239 1.2522282645
*
