  16
        -29.78603671
 C         -2.5838117315        0.2512182735       -0.0000382401
 C         -1.8874569494        1.4616450228        0.0001110540
 C         -0.5168006422        1.4449665438        0.0001277928
 C          0.1920417567        0.2364001466        0.0000158494
 C         -0.5015151475       -0.9979111762       -0.0000305077
 C         -1.9096434763       -0.9423738914       -0.0001073895
 N          0.1219739436       -2.1884189190        0.0000281548
 N          1.6063007235        0.3122951408       -0.0001190943
 O          2.1268113821        1.4117874591       -0.0001875398
 O          2.2600250286       -0.7280408196        0.0002201724
 H         -3.6633910159        0.2545162107       -0.0000920440
 H         -2.4227823121        2.3970563445        0.0002266921
 H          0.0548606562        2.3603235840        0.0002256851
 H         -2.4524653202       -1.8763181327       -0.0002148576
 H          1.1330616385       -2.2081470361        0.0000137395
 H         -0.4165838929       -3.0353439398       -0.0003496204
