! pbe def2-sv(p) def2/J RI DEFGRID1 loosescf d4 GCP(DFT/SV(P)) printgap
%output
    printlevel normal
end
* xyz 0 1
C -2.1593215563 -1.2651757835 0.055829019
C -0.8569791809 -0.5711454262 0.4984806463
H -0.9649745356 -0.2678953423 1.5547589422
C -0.6105995794 0.7059961457 -0.3263009471
H -0.7045431152 0.4553122163 -1.3957124244
C 0.7983207964 1.3030827537 -0.1041410816
H 0.7131352063 2.1041253103 0.6368123835
C 1.8045543787 0.2433481967 0.4072979649
H 2.7938144209 0.5137555376 0.0253492676
C 1.3986088667 -1.1280153834 -0.1464757023
H 2.1148695476 -1.8996478759 0.1766341415
O 0.177396402 -1.5485414106 0.4040731693
O 1.3518811218 -1.0426684543 -1.5416266581
O 1.9280467938 0.1938066968 1.8007297284
O 1.2802693327 1.9052785895 -1.271094974
O -1.5504273469 1.6839532953 0.0325369224
O -3.3039474634 -0.4830682571 0.2881607173
H -2.2225333993 -2.234479254 0.5655895864
H -2.1303159939 -1.4433277904 -1.0220534052
H 1.0872214639 -1.8984077601 -1.8999658083
H 1.1636346007 -0.262080846 2.1719678786
H 1.4094232994 1.2132930372 -1.9335416234
H -2.4372273605 1.333735549 -0.1434051865
H -3.4325811585 -0.3815195305 1.2386181414
*
