! r2scan-3c def2/J RI DEFGRID2 scfconv6 printgap
%output
    printlevel normal
end
* xyz 0 1
C 3.360186034 0.1230127037 0.0113000962
N 1.945993865 0.3618312597 0.1788469992
C 1.6021856655 1.5923564291 0.8423976926
C 1.0596828442 -0.5760842693 -0.2328954712
O 1.4098399914 -1.6416885565 -0.7076194187
C -0.3920820729 -0.2335791705 -0.0941319425
C -1.1966630452 -0.9915896223 0.7474040191
C -2.55366556 -0.733398354 0.8291286022
C -3.1177999195 0.268911147 0.057925108
C -2.3230104017 1.0124862066 -0.7987750481
C -0.9639791785 0.764946918 -0.8752571875
H 3.4826942932 -0.8291420564 -0.5011897263
H 3.8601867783 0.0796926803 0.981985837
H 3.8094642868 0.9209487596 -0.5843241173
H 2.1702200145 1.6768700638 1.7730492661
H 0.5409322857 1.6178537869 1.0764260445
H 1.8489148321 2.4521796598 0.2117104374
H -0.7516092778 -1.7812972144 1.3342094938
H -3.1732871274 -1.320063849 1.4911879855
H -4.1779438952 0.4662622194 0.1185229622
H -2.763127029 1.7867581525 -1.4100000307
H -0.3440362099 1.3390343789 -1.5489038961
*
