! pbe def2-sv(p) def2/J RI DEFGRID1 loosescf d4 GCP(DFT/SV(P)) printgap
%output
    printlevel normal
end
* xyz 0 1
C -2.64039477 -0.3412044137 -1.2360844428
C -1.2432071226 -0.1613267768 -0.6515288578
H -0.5775462122 0.2233634118 -1.4321187557
C -0.6628538466 -1.4969672143 -0.14863173
C 0.2983485638 -1.3261830886 1.027877519
C 1.1060380703 -0.0260677679 0.9045226542
H 1.8184788451 0.0080775238 1.7401999771
C 0.1139875153 1.1242183975 1.0919630813
C -1.2306754894 0.8944298672 0.433421884
O -2.203292668 1.5376939968 0.7416922335
C 1.9455317319 0.0098470788 -0.3538759833
C 1.8815589686 0.9458009085 -1.2876992276
C 2.9406222449 -1.1105480885 -0.4655804175
H -3.0045170407 0.6012747168 -1.6369285716
H -2.6258659018 -1.0817027442 -2.0323508126
H -3.3329241748 -0.6662581969 -0.4632044034
H -1.4843985245 -2.1478263715 0.1565543819
H -0.1510313054 -1.9854201333 -0.9799553044
H -0.2720206461 -1.2732291549 1.9584684846
H 0.9572011653 -2.1919190613 1.0969999691
H -0.0752901686 1.2775426878 2.1577195716
H 0.5176639152 2.067010948 0.7176109558
H 2.5349418443 0.9194824979 -2.1439517828
H 1.1949865928 1.7736141181 -1.2600452034
H 2.4426008587 -2.0423648039 -0.7302608805
H 3.6785647764 -0.8941731123 -1.2333469757
H 3.4553458815 -1.2645237648 0.48137222
*
