! r2scan-3c def2/J RI DEFGRID2 scfconv6 printgap
%output
    printlevel normal
end
* xyz 0 1
C -3.5475864164 -0.25678606 -0.4115345628
O -2.1860467216 -0.0907029714 -0.7837474123
C -1.3140550691 0.0808862592 0.2198355674
O -1.6370336436 0.11164729 1.3778923119
C 0.1015182435 0.1857138154 -0.3021482162
C 0.7558471852 -1.1977479097 -0.1745615518
C 2.2049085139 -1.1464154235 -0.6472628892
C 2.9926025153 -0.1169529549 0.1565178472
C 2.3473838797 1.2593627245 0.030043216
C 0.8966008269 1.2181566696 0.4980406628
H -3.9123249393 0.6380895533 0.0964683442
H -3.6542676055 -1.1097743193 0.2614640448
H -4.097960353 -0.4242657922 -1.3336074757
H 0.0596470552 0.4677452973 -1.3579619563
H 0.7209705076 -1.5072417389 0.8723148056
H 0.1937094215 -1.9252906325 -0.7641846197
H 2.6591444797 -2.1332437197 -0.538454187
H 2.2319759001 -0.8794037017 -1.7062485112
H 3.0086792906 -0.413828115 1.2073182221
H 4.0247214584 -0.0787513583 -0.1977169672
H 2.9030464274 1.9876132376 0.6237102475
H 2.3828418646 1.581440303 -1.0135388015
H 0.8511899925 0.9490522519 1.5547985408
H 0.4384751256 2.2029630435 0.3845548529
*
