! pbe def2-sv(p) def2/J RI DEFGRID1 loosescf d4 GCP(DFT/SV(P)) printgap
%output
    printlevel normal
end
* xyz 0 1
C -2.2497981969 -0.9982419568 0.7550637515
C -0.798938355 -0.4712193145 0.7516512287
H -0.5264019219 -0.180820564 1.7784929241
C -0.6370224726 0.739396754 -0.184331593
H -0.8036826497 0.4040511463 -1.2149928428
C 0.7974484421 1.3003457997 -0.0826741715
H 0.8150509368 2.0965385704 0.6744896996
C 1.7896710281 0.1897127682 0.3468641334
H 2.7525366231 0.3947207273 -0.1427227921
C 1.2872713349 -1.159901851 -0.1795618732
H 1.9873986416 -1.9596812444 0.1101145958
O 0.0534314095 -1.5336504739 0.3442506794
O 1.2369164176 -1.0413853991 -1.5810694631
O 1.9414693135 0.0919042362 1.7400199671
O 1.2147725671 1.9061830114 -1.2730113679
O -1.6283457244 1.7103429669 0.050943194
O -2.9092518993 -0.8764821272 -0.4721490936
H -2.8079610058 -0.4812432121 1.5475498308
H -2.2141315635 -2.0647962779 0.9837690897
H 0.7624265188 -1.8093283054 -1.923511243
H 2.4311900425 0.8596908468 2.0559273692
H 1.2583689332 1.2210331509 -1.954081875
H -1.4605407472 2.1421565682 0.8963256215
H -2.9974924874 0.0650992787 -0.6723308134
*
