! pbe def2-sv(p) def2/J RI DEFGRID1 loosescf d4 GCP(DFT/SV(P)) printgap
%output
    printlevel normal
end
* xyz 0 1
C -2.3291223005 -0.8305260346 -0.2447282213
O -0.9324256496 -0.5937730644 -0.1177880536
C -0.5567270715 0.6733275371 -0.0342194527
O -1.3051570038 1.6136105128 -0.0586314797
C 0.9474929452 0.8431860387 0.0957948451
Cl 1.8241041047 -0.6961376029 0.1581795189
H -2.7099497304 -0.3630562891 -1.1546205137
H -2.8617784472 -0.4165012236 0.6133435787
H -2.4489499389 -1.9096420313 -0.2878715387
H 1.1628503843 1.4001839279 1.0091472548
H 1.3132460484 1.4120266334 -0.7608928939
*
