! pbe def2-sv(p) def2/J RI DEFGRID1 loosescf d4 GCP(DFT/SV(P)) printgap
%output
    printlevel normal
end
* xyz 0 1
C -2.5567510853 -0.6798706426 -0.3223594898
C -1.1782886609 -0.2968471589 0.2246540083
H -1.2263570551 -0.2599716204 1.3260221395
C -0.7217769931 1.0800838663 -0.3053160465
H -0.7322203574 1.0681943773 -1.4005904501
C 0.711497794 1.3482243469 0.1755236211
H 0.7107980974 1.4212754527 1.2801675932
C 1.6126720279 0.1711225014 -0.2138019472
H 1.6642866617 0.1112855072 -1.3144523886
C 1.0189420904 -1.1455682005 0.3205724283
H 1.0309940759 -1.1212438076 1.424551415
O -0.2817201667 -1.3253079611 -0.1662964785
O 1.7934266826 -2.2313358406 -0.0585747816
O 2.8931584285 0.3956599883 0.3232317754
O 1.1761683682 2.5457688369 -0.3809693698
O -1.617462083 2.0847870768 0.0718412609
O -3.0603604877 -1.8306613211 0.2947607985
H -2.4715761183 -0.818896112 -1.4085693823
H -3.2599451083 0.1286806567 -0.1179542748
H 1.5350100764 -2.4836038386 -0.9540770576
H 3.3677483819 -0.4456490996 0.3243978597
H 2.1270473208 2.5907289345 -0.2192595835
H -1.411742359 2.382688567 0.9657163946
H -2.3997458357 -2.5276256 0.1994314333
*
