! pbe def2-sv(p) def2/J RI DEFGRID1 loosescf d4 GCP(DFT/SV(P)) printgap
%output
    printlevel normal
end
* xyz 0 1
C -3.3899698837 -0.5239879942 -0.1130385778
C -1.9087559255 -0.4177604725 -0.4569456473
H -1.7835683016 -0.464515863 -1.5453800951
C -1.0967049041 -1.5588180824 0.1729629234
C 0.3853536838 -1.4335351191 -0.1611647194
C 0.9319594973 -0.1006577026 0.3532008223
H 0.7534641445 -0.0508531523 1.43321327
C 0.1470690891 1.0531869822 -0.298797468
C -1.3240364706 0.9031519083 0.0101500118
O -1.959858524 1.743408621 0.5937745225
C 2.4147751831 0.0658864399 0.1208867944
C 3.2165072695 0.4460354248 1.1033800638
C 2.935684224 -0.2070271253 -1.2578767543
H -3.5292544438 -0.4649100186 0.9635912654
H -3.9411744118 0.2947447089 -0.5682925207
H -3.7984312078 -1.4665416054 -0.4698580993
H -1.2333950236 -1.5345549913 1.2567087919
H -1.4825818738 -2.514295608 -0.1893041746
H 0.9377205164 -2.2552035698 0.3000449145
H 0.5175904377 -1.4999021789 -1.2427108839
H 0.5029936291 2.0133207443 0.0782197739
H 0.2838796007 1.0265512427 -1.381555302
H 4.2739247942 0.5850395726 0.954009303
H 2.8504846314 0.6351581421 2.0983850117
H 2.8964524506 -1.2742525388 -1.4737404588
H 2.3439523603 0.3105850598 -2.0103990666
H 3.968363983 0.1196219033 -1.3454317916
*
