! pbe def2-sv(p) def2/J RI DEFGRID1 loosescf d4 GCP(DFT/SV(P)) printgap
%output
    printlevel normal
end
* xyz 0 1
C -2.5154148186 -0.9949547153 0.3591551805
C -1.0906261622 -0.4866318007 0.6229240165
H -0.924876823 -0.4173389284 1.709553368
C -0.8386794748 0.8943116985 -0.0107354717
H -1.0174180045 0.8220569907 -1.0941746775
C 0.6244108419 1.2780831088 0.22592398
H 0.780475699 1.3932467613 1.3111816054
C 1.5565118698 0.1794415091 -0.296982998
H 1.433918981 0.1176729522 -1.3935343339
C 1.1597799761 -1.1774822646 0.3168869251
H 1.3397166936 -1.1486149432 1.4020604391
O -0.2097467557 -1.431771976 0.0521935562
O 1.8916490929 -2.2323593166 -0.1654303273
O 2.8879714642 0.452191091 0.0319629679
O 0.9608583229 2.4745621949 -0.4344857737
O -1.6336172108 1.9109877929 0.5531399582
O -2.8281238283 -0.9964156471 -1.0066850322
H -3.2427903037 -0.3440321299 0.8494580777
H -2.6015166114 -2.0030048159 0.7839513202
H 1.8162134243 -2.2633209361 -1.1275182223
H 3.0565253901 1.3739564333 -0.203700247
H 0.2838547644 3.1240550685 -0.2084761166
H -2.5509076515 1.7598477914 0.3003166604
H -2.1859334887 -1.5660579095 -1.4472403515
*
