! pbe def2-sv(p) def2/J RI DEFGRID1 loosescf d4 GCP(DFT/SV(P)) printgap
%output
    printlevel normal
end
* xyz 0 1
C -1.7611883383 -1.3774040623 -0.4765631118
C -1.1239897793 -0.492436733 0.6107703152
H -1.8229814398 -0.3933550061 1.4505719757
C -0.8437388119 0.9319405978 0.0930299612
H -1.1030962323 0.9955315708 -0.9756482617
C 0.6456619266 1.2598477911 0.2308165252
H 0.907393363 1.3371063635 1.2983108335
C 1.4459702915 0.1127103893 -0.3879729718
H 1.1019725992 -0.0532000929 -1.4198623918
C 1.1815837505 -1.1660596803 0.4270691977
H 1.9858740785 -1.2843385057 1.1741781143
O 0.0141264508 -1.1092259643 1.194206593
O 1.1887328283 -2.2442713966 -0.4673963672
O 2.8062897284 0.4738302105 -0.3797074214
O 0.8921128604 2.4789462754 -0.4204955767
O -1.6378678158 1.8309523439 0.8256465909
O -2.8756757282 -0.7698982142 -1.0694079527
H -2.0288447859 -2.345225818 -0.0262478495
H -1.0478957922 -1.555347668 -1.284658751
H 0.9443231352 -3.0472108362 0.0083336863
H 3.3154786063 -0.233528832 -0.7896999577
H 1.847918949 2.5502169797 -0.5359636519
H -1.3535775612 2.7222566832 0.5877428045
H -3.4706807163 -0.4590225945 -0.3770176429
*
