! pbe def2-sv(p) def2/J RI DEFGRID1 loosescf d4 GCP(DFT/SV(P)) printgap
%output
    printlevel normal
end
* xyz 0 1
C -1.8058951854 -1.0491797466 -0.6776209404
C -1.0337114931 -0.477419513 0.5312754712
H -1.6884813934 -0.5700396829 1.412554641
C -0.703162549 1.0124769519 0.3376813177
H -1.5406837122 1.471912254 -0.2061971065
C 0.5868016701 1.2448093118 -0.4864751782
H 0.8512689137 2.3025633671 -0.3605875125
C 1.7231702468 0.3824677964 0.0818615806
H 2.5834607224 0.4244921796 -0.5959672763
C 1.2634530535 -1.0904835753 0.1513225984
H 2.0143869272 -1.6646076575 0.7147818488
O 0.088044367 -1.2726410083 0.8880163996
O 1.1471185861 -1.5707881968 -1.1649073588
O 2.1645383006 0.8260285426 1.3298412071
O 0.3939136726 1.0302474913 -1.8555880893
O -0.4993806468 1.657371332 1.5818937984
O -3.1327080534 -0.5909584143 -0.7027416919
H -1.7651196144 -2.1464185292 -0.6278707168
H -1.364783429 -0.7154840891 -1.6173791198
H 0.9135087267 -2.5062248775 -1.142355643
H 1.3856551774 1.067356515 1.8549131859
H 0.610270449 0.1071786255 -2.0525587018
H -1.3187779412 1.6468302118 2.0883260381
H -3.6100915041 -0.9458969168 0.0560639299
*
