! pbe def2-sv(p) def2/J RI DEFGRID1 loosescf d4 GCP(DFT/SV(P)) printgap
%output
    printlevel normal
end
* xyz 0 1
C -1.7981441233 -1.0660646406 -0.6698920723
C -1.0304830023 -0.4850677508 0.5284427455
H -1.6916790162 -0.5510942587 1.4001338501
C -0.7079125527 1.0016717131 0.3256534825
H -1.5545614351 1.4457588854 -0.2152216094
C 0.58769812 1.2384882787 -0.4897993523
H 0.8629953901 2.2980573804 -0.3800899816
C 1.7174910043 0.3805146761 0.103617519
H 2.6033945074 0.4443231971 -0.5376066109
C 1.2680418211 -1.0940251183 0.1558811141
H 2.0203445837 -1.6674407463 0.7192401141
O 0.0912230408 -1.2782171774 0.8857360393
O 1.1659571726 -1.5742242626 -1.1639342271
O 2.1015558669 0.8192934363 1.3731898641
O 0.4117441971 1.0160338987 -1.8622486662
O -0.5846482981 1.574799356 1.615007655
O -3.080921546 -0.4839849538 -0.6670158684
H -1.8616862912 -2.1560424289 -0.5364833505
H -1.277978735 -0.849557551 -1.6103280164
H 0.929277807 -2.5088316644 -1.1382015809
H 1.3058927951 0.8445993769 1.9308598934
H 0.6360027982 0.0928053045 -2.04870152
H -0.5029272186 2.5313742278 1.5286592399
H -3.5716675025 -0.8021113825 -1.4319176187
*
