! pbe def2-sv(p) def2/J RI DEFGRID1 loosescf d4 GCP(DFT/SV(P)) printgap
%output
    printlevel normal
end
* xyz 0 1
C -0.4855287573 -1.4134738637 -0.0004605725
N -0.4285728954 0.0350318876 0.002923129
C -1.6668716809 0.7662339331 -0.0014225686
C 0.7775907617 0.6234872663 0.0006372099
O 1.8318953885 0.0338470813 -0.0010145226
H 0.0156501399 -1.8050538333 -0.8874951047
H -1.522083734 -1.7383135384 0.0070677392
H 0.0295739263 -1.8084743685 0.8768965182
H -1.4595629613 1.8348518716 0.0032596812
H -2.2612236731 0.5208469986 0.8829100685
H -2.2522742748 0.5268783845 -0.8934640619
H 0.7096724565 1.7281980285 0.001154798
*
