! pbe def2-sv(p) def2/J RI DEFGRID1 loosescf d4 GCP(DFT/SV(P)) printgap
%output
    printlevel normal
end
* xyz 0 1
C -3.4038926562 0.6673485902 0.3307869702
C -1.9083361271 0.3833136796 0.4463879196
H -1.6386251268 0.4235597647 1.5073426505
C -1.0765304537 1.4269764131 -0.3226494797
C -0.0393889804 0.8153363394 -1.2703949157
C 0.7587660492 -0.3585160674 -0.6911615586
H 1.0918577046 -0.9745605562 -1.5390960134
C -0.1240588477 -1.2898395091 0.1183799734
O 0.3186474393 -2.1561479279 0.8319715769
C -1.5993700781 -1.037263073 -0.0450643035
C 2.0432677469 -0.0125741412 0.0929035375
C 3.1433724393 0.5056032201 -0.8299102637
C 1.8020569215 0.9702232678 1.2342683042
H -3.6300616921 1.6625383884 0.7071457524
H -3.7243779753 0.6087739453 -0.7075178495
H -3.9770380507 -0.0546410757 0.908164563
H -1.7435077529 2.0495438562 -0.9235110587
H -0.5846996648 2.0876694703 0.3896888946
H -0.5579071526 0.4645504731 -2.1660409346
H 0.6482218601 1.597773886 -1.5940524762
H -1.8763480929 -1.134442473 -1.095941866
H -2.1604048356 -1.7697363895 0.5370500397
H 2.3815978417 -0.9583266636 0.5312691872
H 4.057119116 0.6676341765 -0.2629821383
H 2.8600315762 1.4515178188 -1.2867854518
H 3.3560690556 -0.2092274362 -1.6217998455
H 1.5739608608 1.9631684971 0.8546084468
H 2.6965430638 1.0446045276 1.8491137412
H 0.9851297871 0.6311344947 1.8662174003
*
