! pbe def2-sv(p) def2/J RI DEFGRID1 loosescf d4 GCP(DFT/SV(P)) printgap
%output
    printlevel normal
end
* xyz 0 1
C -1.4861194711 -1.4509148817 0.2515196916
O -1.5759810305 -0.1067996542 -0.1896851219
C -0.6356340948 0.7992333018 0.0608881964
O -0.7810022215 1.9308485693 -0.3074749473
C 0.6166844019 0.3662972314 0.8198241625
Cl 1.6558947353 -0.601982686 -0.2688524711
H -2.3531476708 -1.9508604726 -0.1765604598
H -1.5388069141 -1.5119772894 1.3414539881
H -0.5741922924 -1.9325447261 -0.1040382739
H 0.3921569183 -0.2406503901 1.6959681482
H 1.1781347358 1.2567843061 1.0993630346
*
