! pbe def2-sv(p) def2/J RI DEFGRID1 loosescf d4 GCP(DFT/SV(P)) printgap
%output
    printlevel normal
end
* xyz 0 1
C 2.4730452995 1.1632886632 -0.3340876078
C 1.6997559295 -0.0803311953 0.0281812913
O 2.2515857952 -1.1161272809 0.3190264374
C 0.2161737441 0.0230024267 0.0046312826
C -0.4846149059 1.2165238087 -0.1640214099
C -1.8683184741 1.1838540428 -0.1687423287
C -2.5038656556 -0.0389862283 -0.0036113104
N -1.8527313328 -1.1791852338 0.1560247922
C -0.5359306004 -1.1462235213 0.159784919
H 2.29511988 1.9383750369 0.4088916482
H 2.1604931525 1.5341045808 -1.3076165813
H 3.5345664593 0.9310316734 -0.3565145448
H 0.0321303342 2.157228997 -0.2817476231
H -2.4430283469 2.0884822529 -0.2944977546
H -3.5834660117 -0.1123815633 0.0033400981
H -0.0286287981 -2.0929554094 0.2903081125
*
