! pbe def2-sv(p) def2/J RI DEFGRID1 loosescf d4 GCP(DFT/SV(P)) printgap
%output
    printlevel normal
end
* xyz 0 1
C 1.7125274865 -0.9440906384 -0.0010976456
C 0.7129066937 0.1777099816 0.0002243954
C 1.134665702 1.4413262985 0.0010717968
C -0.7129036139 -0.1777232931 0.0001665129
C -1.1346921732 -1.4413276077 0.001031104
C -1.7125075293 0.944099174 -0.0010831023
H 1.5860947591 -1.569967772 0.8808661115
H 2.725024251 -0.5488572629 -0.0012107023
H 1.5852894497 -1.5685630627 -0.8839539129
H 0.4701858901 2.2861222318 0.001598086
H 2.1860498933 1.6765943354 0.0005702358
H -2.1860831976 -1.6765620308 0.0009481372
H -0.4702518758 -2.2861410579 0.0017799231
H -2.7250127414 0.5488305508 -0.0023665411
H -1.5867087388 1.5694055342 0.8814948809
H -1.5845467644 1.5692110487 -0.8834569242
*
