! pbe def2-sv(p) def2/J RI DEFGRID1 loosescf d4 GCP(DFT/SV(P)) printgap
%output
    printlevel normal
end
* xyz 0 1
C -2.2191299661 -1.2096341806 0.1173792545
C -0.8464848843 -0.5877673481 0.4306403406
H -0.8017764852 -0.3394543784 1.5025818539
C -0.6011420771 0.6885762999 -0.3950040414
H -0.647102847 0.4348270932 -1.4610099846
C 0.7953053946 1.2825539753 -0.0901183978
H 0.6800306086 2.0872568892 0.6492108162
C 1.742168977 0.2083923166 0.4972643796
H 2.7682815681 0.4693913147 0.1999000031
C 1.4101518893 -1.1445405518 -0.1396850028
H 2.0843843531 -1.9209202835 0.2546445902
O 0.1206616859 -1.5886591862 0.1409500522
O 1.6043768344 -0.9873865457 -1.5251313522
O 1.6364989961 0.0760932404 1.8909363902
O 1.3705359792 1.8883149572 -1.2123853366
O -1.6294517276 1.6320152022 -0.2028238874
O -3.2881152039 -0.4387522053 0.5835554919
H -2.2793705196 -2.1761622242 0.6217364756
H -2.290502275 -1.3764376689 -0.9672337932
H 1.3119129708 -1.7970416532 -1.9608454815
H 2.0088772031 0.86016464 2.310100317
H 1.5588673933 1.1942927593 -1.8592394396
H -1.5717506545 1.9844417831 0.6939489655
H -3.2244089966 0.4325656809 0.1628865967
*
