! pbe def2-sv(p) def2/J RI DEFGRID1 loosescf d4 GCP(DFT/SV(P)) printgap
%output
    printlevel normal
end
* xyz 0 1
C -2.1116178052 -1.2586539071 -0.0674695968
C -1.2002519192 -0.3645289325 0.8051696339
H -1.7247863876 -0.1505127999 1.7436035878
C -0.8988783728 0.9776224401 0.0963405673
H -1.1278524153 0.8695763371 -0.9788415256
C 0.588399406 1.2989394106 0.2357542775
H 0.8432911216 1.4067171815 1.2958523899
C 1.3912450074 0.1322560855 -0.3660994516
H 1.1244882501 0.023437738 -1.4318714159
C 1.0359049263 -1.1755018747 0.3563066595
H 1.8888789184 -1.4622130697 0.9859072613
O -0.0314683872 -1.0450246707 1.2502329691
O 0.7876928964 -2.1618658996 -0.6136902422
O 2.7661031229 0.3649058204 -0.238933362
O 0.9701075842 2.5009714808 -0.3808910759
O -1.6419137261 2.0400595945 0.6423568874
O -1.7243846613 -1.3249906336 -1.4102349518
H -3.1216232378 -0.8397015197 -0.0659450665
H -2.1491389396 -2.2576550656 0.3886132283
H 0.7140585873 -3.0210659858 -0.1799679249
H 2.903256284 1.3159264616 -0.3619007197
H 0.4231328278 2.648617596 -1.1605616791
H -2.5806624994 1.8770714523 0.501894766
H -0.8263209163 -1.7019700957 -1.4447692009
*
