! r2scan-3c def2/J RI DEFGRID2 scfconv6 printgap
%output
    printlevel normal
end
* xyz 0 1
C -2.4907713776 -0.1921439999 -1.0243877734
S -1.8537754703 0.232292314 0.6285095906
C -0.1082338968 0.073490228 0.257864366
C 0.5927202589 1.1673551675 -0.2214931996
C 1.9361982102 1.0357785443 -0.5267055417
C 2.5725428227 -0.1815338046 -0.3489407976
C 1.8672977207 -1.2696166688 0.1378632582
C 0.523583635 -1.1444592436 0.4448286056
H -2.1152124351 0.5219101622 -1.7514856886
H -3.5724011056 -0.1347993711 -0.9644612284
H -2.1808785616 -1.2004853857 -1.2832240848
H 0.0861801093 2.1121740156 -0.3501316909
H 2.4867269391 1.8859607609 -0.9016472592
H 3.6212265437 -0.2814979899 -0.5870199326
H 2.363997103 -2.2179074903 0.2810425556
H -0.0366309631 -1.9832134507 0.8299962815
*
