! pbe def2-sv(p) def2/J RI DEFGRID1 loosescf d4 GCP(DFT/SV(P)) printgap
%output
    printlevel normal
end
* xyz 0 1
C -2.5621478226 -0.8975685758 0.231758292
C -1.149902691 -0.4413252105 0.625918575
H -1.0739437948 -0.3762240323 1.7213094002
C -0.845694038 0.9437422411 0.0377633027
H -1.0854790733 0.9280844722 -1.0394148177
C 0.6444993734 1.2906769019 0.2157972067
H 0.8450081458 1.4137342815 1.289170323
C 1.5069850722 0.1513347512 -0.3429153892
H 1.2932516535 0.0246324494 -1.4135125716
C 1.1017626938 -1.1502970308 0.3910473883
H 1.2620420841 -1.0268745676 1.4762013834
O -0.2564749018 -1.4203754309 0.127076791
O 1.8571359621 -2.2382324452 0.0208057329
O 2.879123893 0.4108364582 -0.2729910374
O 0.9348579067 2.5425924586 -0.3571993611
O -1.6458694912 1.886459973 0.7009134518
O -2.6575668996 -1.1371685297 -1.1443291371
H -3.2688725034 -0.102133709 0.4704092416
H -2.8142508857 -1.8006343769 0.8030875555
H 1.7228093519 -2.4169721705 -0.9182422222
H 3.152405544 0.4733245258 0.6495757
H 1.1223070333 2.429312359 -1.2962083971
H -1.2810261532 2.7604534085 0.5055032834
H -1.9680289254 -1.7743010083 -1.3689861765
*
