  16
        -25.51675418
 C          2.4531916436       -1.2011572825        0.0012815721
 C          1.7022423184        0.1051872871       -0.0000495964
 O          2.2700099234        1.1733842941       -0.0012086780
 C          0.2157738400        0.0276369845       -0.0000008953
 C         -0.5138239307        1.2190177275        0.0006284617
 C         -1.8947080895        1.1692322364        0.0006702490
 C         -2.5030130058       -0.0786562097        0.0000727679
 N         -1.8267077874       -1.2151760104       -0.0006473314
 C         -0.5082919761       -1.1654412646       -0.0006941770
 H          3.5215636316       -1.0005378082        0.0029007193
 H          2.1960551971       -1.7808087008       -0.8826528629
 H          2.1932208766       -1.7810415003        0.8842010502
 H          0.0225642598        2.1570021344        0.0010838824
 H         -2.4861894671        2.0714532537        0.0011746439
 H         -3.5804910790       -0.1789405003        0.0001758159
 H         -0.0188848240       -2.1297567116       -0.0014427052
  16
        -25.51589904
 C          2.4730452995        1.1632886632       -0.3340876078
 C          1.6997559295       -0.0803311953        0.0281812913
 O          2.2515857952       -1.1161272809        0.3190264374
 C          0.2161737441        0.0230024267        0.0046312826
 C         -0.4846149059        1.2165238087       -0.1640214099
 C         -1.8683184741        1.1838540428       -0.1687423287
 C         -2.5038656556       -0.0389862283       -0.0036113104
 N         -1.8527313328       -1.1791852338        0.1560247922
 C         -0.5359306004       -1.1462235213        0.1597849190
 H          2.2951198800        1.9383750369        0.4088916482
 H          2.1604931525        1.5341045808       -1.3076165813
 H          3.5345664593        0.9310316734       -0.3565145448
 H          0.0321303342        2.1572289970       -0.2817476231
 H         -2.4430283469        2.0884822529       -0.2944977546
 H         -3.5834660117       -0.1123815633        0.0033400981
 H         -0.0286287981       -2.0929554094        0.2903081125
  16
        -25.51471086
 C          2.4603893866       -1.1040203956        0.4739771559
 C          1.7004465226        0.0913714558       -0.0423916662
 O          2.2625343750        1.0873225537       -0.4360978907
 C          0.2144352522        0.0211909888       -0.0093921274
 C         -0.5067940337        1.1955927782        0.2125259565
 C         -1.8880230572        1.1476228907        0.2361413484
 C         -2.5035753298       -0.0791254153        0.0279836924
 N         -1.8339858519       -1.1912695024       -0.2213936741
 C         -0.5162498656       -1.1438719888       -0.2437524209
 H          1.8348864941       -1.9798960259        0.6038361633
 H          2.8869314942       -0.8318923231        1.4393797206
 H          3.2893376191       -1.3243848712       -0.1953859864
 H          0.0311938994        2.1193620530        0.3694925383
 H         -2.4739993286        2.0360538028        0.4121766075
 H         -3.5806073350       -0.1796272305        0.0523022316
 H         -0.0304219457       -2.0792166121       -0.4891332612
  16
        -25.51401591
 C          2.4702664685        0.5303905376        1.0841467721
 C          1.6982910889       -0.0198204875       -0.0903952078
 O          2.2496939351       -0.5285849862       -1.0380618215
 C          0.2144122878        0.0396882885       -0.0076194304
 C         -0.4918545837        1.1089701458        0.5378518371
 C         -1.8753732257        1.0603930583        0.5493648471
 C         -2.5029946238       -0.0552088014        0.0137155191
 N         -1.8441682405       -1.0742057883       -0.5119301965
 C         -0.5283480344       -1.0243294847       -0.5278404853
 H          3.2786309523        1.1626021258        0.7227869342
 H          2.9260431683       -0.3112120522        1.6047842628
 H          1.8461079050        1.0770970797        1.7822619528
 H          0.0240826322        1.9797374875        0.9166743234
 H         -2.4546266095        1.8746220105        0.9563490885
 H         -3.5817509136       -0.1364775311       -0.0049263275
 H         -0.0191030447       -1.8721049607       -0.9665389209
