! pbe def2-sv(p) def2/J RI DEFGRID1 loosescf d4 GCP(DFT/SV(P)) printgap
%output
    printlevel normal
end
* xyz 0 1
C -2.2454511904 -0.4206107333 -2.2142e-06
C -1.1840213295 0.6742756784 -2.7151e-06
Br 0.6421001614 -0.0445533834 -2.636e-06
H -2.8796925429 -0.3393152419 -0.8795810235
H -1.798713667 -1.4117724227 -0.0039495253
H -2.8749168764 -0.3441528147 0.8834498523
H -1.240983889 1.3019639051 0.8872564657
H -1.2413878913 1.3024777775 -0.886908053
*
