! pbe def2-sv(p) def2/J RI DEFGRID1 loosescf d4 GCP(DFT/SV(P)) printgap
%output
    printlevel normal
end
* xyz 0 1
C -2.82340444 1.0187614321 3.36919e-05
O -2.2157971174 -0.2487787251 -2.86012e-05
C -0.8554783232 -0.3235306197 -1.33684e-05
C -0.3165697449 -1.6100532521 -2.6992e-06
C 1.0518765374 -1.7851735699 1.46174e-05
C 1.9065422276 -0.6977670697 1.41731e-05
C 1.3732912358 0.5840822256 -1.8862e-06
C -0.0047162591 0.7746756532 -9.2664e-06
O 2.2328484481 1.6397246222 -6.3021e-06
H -2.5585934902 1.5932574898 -0.8940608169
H -2.5586656996 1.5931239743 0.8942363842
H -3.896106544 0.8319112175 -2.66631e-05
H -0.9924728566 -2.4493526656 -8.4634e-06
H 1.4614513057 -2.7837445209 2.38687e-05
H 2.9771291613 -0.8183330874 2.48487e-05
H -0.3918990163 1.7842362418 -1.15277e-05
H 1.7375549795 2.4675655796 -4.37908e-05
*
