! pbe def2-sv(p) def2/J RI DEFGRID1 loosescf d4 GCP(DFT/SV(P)) printgap
%output
    printlevel normal
end
* xyz 0 1
C -1.8112120946 -1.0102764684 -0.6888082376
C -1.032665038 -0.4300413796 0.5123401109
H -1.6936433435 -0.4943460608 1.386312077
C -0.6715190123 1.0593342553 0.3139768865
H -1.4753506937 1.5413539511 -0.2556158573
C 0.6386910089 1.2433111391 -0.478497457
H 0.9467727476 2.2907493357 -0.3484139327
C 1.7441299203 0.3390909439 0.0983846653
H 2.6346392907 0.3872038337 -0.5526162876
C 1.245541831 -1.1220016263 0.1215355109
H 1.9680610155 -1.7569027914 0.6547408914
O 0.079968782 -1.2296640291 0.8891047034
O 1.1562461756 -1.6455366312 -1.1599358356
O 2.0467689562 0.8083576113 1.3905571861
O 0.3997331697 0.9538134255 -1.8408586478
O -0.6050144558 1.7458714989 1.5315686277
O -3.1913952821 -0.7732426396 -0.5798677939
H -1.6928495924 -2.0959602794 -0.6889052762
H -1.4298788258 -0.6029866707 -1.6345361511
H 0.6340150507 -1.0420262292 -1.7122702203
H 2.5768491374 0.1494393977 1.8538195251
H 1.1420140466 1.2699562143 -2.3685912331
H 0.1981818283 1.4591983267 1.991894828
H -3.350260965 0.1766426635 -0.5431013188
*
