! pbe def2-sv(p) def2/J RI DEFGRID1 loosescf d4 GCP(DFT/SV(P)) printgap
%output
    printlevel normal
end
* xyz 0 1
C -2.3004189827 -0.979382801 -0.1961445738
C -1.2181784451 -0.1349844686 0.5421068713
H -1.6608710891 0.300727081 1.448481628
C -0.6539780123 1.004172239 -0.3214659688
H -0.5877219058 0.6979441807 -1.370921694
C 0.7601211153 1.3407386633 0.1755966279
H 0.729867563 1.5113918329 1.2668328089
C 1.677699581 0.1396750022 -0.1001041684
H 1.9611472246 0.1578257864 -1.1626715515
C 0.895408594 -1.1645844147 0.1480327557
H 1.5533335523 -1.8682228555 0.681677881
O -0.182458148 -0.9732927095 1.0327156853
O 0.4852151388 -1.6606700576 -1.0818845734
O 2.8117107972 0.1499798491 0.7219558339
O 1.26562597 2.4855269848 -0.4641430207
O -1.4745232205 2.1457945322 -0.3206593867
O -2.0555948825 -2.3587059789 -0.080454599
H -2.2941000317 -0.76192965 -1.2658079569
H -3.2919294166 -0.7315524159 0.2042240342
H -0.2362869768 -2.2989598042 -0.9359584609
H 3.2596158239 0.9946669912 0.590056339
H 0.5107833978 2.9978595264 -0.7870316854
H -1.5912875351 2.4535460823 0.5875117563
H -1.8426923768 -2.5485654932 0.8432385369
*
