! pbe def2-sv(p) def2/J RI DEFGRID1 loosescf d4 GCP(DFT/SV(P)) printgap
%output
    printlevel normal
end
* xyz 0 1
C -2.6235196541 0.9914815735 -0.503044849
C -1.7470394537 -0.13918129 -0.0158556259
O -2.194808787 -1.054582009 0.6274460247
C -0.2726860437 -0.0120250264 -0.3611622715
C 0.4791601898 -1.3288612874 -0.1222005757
C 1.9390135878 -1.0956528599 0.2752448376
C 2.4916379527 0.1238511848 -0.453815132
C 1.7805266053 1.3961151242 0.0238890005
C 0.3487159891 1.1054478393 0.4885285335
H -2.1683128504 1.5441288974 -1.3187653368
H -3.5875535566 0.5942509085 -0.8119722499
H -2.8040059115 1.6701673818 0.3296534319
H -0.1991273447 0.2829813329 -1.4128458256
H -0.035748097 -1.8864897321 0.6624185997
H 0.4355766539 -1.9299384093 -1.0325420391
H 2.0204764222 -0.9349534547 1.3514595752
H 2.5286260352 -1.9806257085 0.0311776072
H 3.5657390427 0.2142471942 -0.2844674193
H 2.3401274535 -0.0109862284 -1.5267995291
H 2.3328072593 1.8423744573 0.8528357908
H 1.7628632207 2.1267624764 -0.7872584541
H 0.3462057549 0.7846484723 1.5313128753
H -0.2478043263 2.0163259248 0.4211363995
*
