! pbe def2-sv(p) def2/J RI DEFGRID1 loosescf d4 GCP(DFT/SV(P)) printgap
%output
    printlevel normal
end
* xyz 0 1
C -2.2592827707 -1.0086545377 0.3739134611
C -0.9545047194 -0.3473430448 0.8596149464
H -1.0737775451 -0.0553919131 1.9105962137
C -0.7053584195 0.9299903737 0.045384669
H -1.1269713642 0.7804201891 -0.9619515969
C 0.7784522796 1.3249123847 -0.1518015077
H 1.000802431 2.173643522 0.5120108787
C 1.783802772 0.1958530887 0.1805038052
H 2.6777782024 0.3211657056 -0.4423003714
C 1.114108757 -1.1508891778 -0.1191491427
H 1.7956639507 -1.9847696246 0.0906450128
O 0.0787020264 -1.331059161 0.8153383126
O 0.7093003093 -1.2797556338 -1.4414616551
O 2.2091589115 0.2452969653 1.5116429126
O 0.8896458973 1.7019226749 -1.5136411134
O -1.4140766144 1.9466585379 0.7142263052
O -2.2064744231 -1.3275192273 -0.9883070567
H -3.0892790842 -0.3126722128 0.5064297017
H -2.4333960187 -1.9060294415 0.9823923596
H 0.4628850525 -0.4176405193 -1.8099538267
H 1.5453724385 -0.2006912966 2.0562476
H 1.7601576266 2.082900748 -1.6751878893
H -1.4620139269 2.7202165099 0.1413170471
H -1.3905704499 -1.8265557435 -1.151471945
*
