! pbe def2-sv(p) def2/J RI DEFGRID1 loosescf d4 GCP(DFT/SV(P)) printgap
%output
    printlevel normal
end
* xyz 0 1
C -0.2012106562 -2.3173013561 -0.1285172549
C 0.4969555597 -1.0018362572 -0.0478527387
C 1.8891934611 -0.9646555911 -0.0455598483
C 2.5901025253 0.2244828093 0.0218895165
C 1.9111811495 1.4328201911 0.0797889197
C 0.5332941244 1.4309815722 0.0694175799
C -0.1697227717 0.2288428996 0.0119640941
N -1.6063650138 0.3267842251 0.0140813846
O -2.0903239972 1.4039664995 -0.2707975641
O -2.2595545653 -0.6539171676 0.303631432
H -0.7017877244 -2.5371637086 0.8134708801
H -0.9719013005 -2.3100725956 -0.8969893706
H 0.5111187868 -3.10994607 -0.3436995047
H 2.4308460243 -1.8975023308 -0.0973078496
H 3.6695182026 0.2102928662 0.0274401608
H 2.4522896395 2.3642928314 0.1322609715
H -0.0279926675 2.3521440753 0.1111372755
*
