! pbe def2-sv(p) def2/J RI DEFGRID1 loosescf d4 GCP(DFT/SV(P)) printgap
%output
    printlevel normal
end
* xyz 0 1
C -2.7414483356 -0.8247575437 0.0155390314
O -1.8550747359 0.2714212254 -0.0124435499
C -0.5020122067 0.1155503795 -0.0055225587
C 0.2158381086 1.3151717625 -0.0074462793
C 1.5938847514 1.3117411413 -0.0024253936
C 2.2896784822 0.1124707244 0.0048375807
C 1.5851710004 -1.0756714894 0.0056401403
C 0.1994736012 -1.0844266131 9.61006e-05
H -3.3685299874 -0.7352859846 0.9066144695
H -2.2396895966 -1.7896715761 0.0347193987
H -3.3765935567 -0.7741307417 -0.8726625264
H -0.3413999216 2.2388617147 -0.0131039736
H 2.1295596801 2.2495011206 -0.0041434312
H 3.3688724995 0.1064990328 0.0090071228
H 2.1138603711 -2.0178816876 0.0099473596
H -0.3061097778 -2.0381736072 -0.0005818416
*
