! pbe def2-sv(p) def2/J RI DEFGRID1 loosescf d4 GCP(DFT/SV(P)) printgap
%output
    printlevel normal
end
* xyz 0 1
C -1.8116292421 -1.0435689708 -0.6822603077
C -1.0532493984 -0.4511221169 0.5253556468
H -1.7208440405 -0.5331916856 1.3929510072
C -0.6928564394 1.03585312 0.3570058035
H -1.5215060471 1.5564475588 -0.1362771745
C 0.5848344738 1.2476402018 -0.4941225196
H 0.858802518 2.3081404534 -0.3906518489
C 1.7197810677 0.3721732943 0.0612119446
H 2.5631532808 0.3901754925 -0.6460718286
C 1.2434183075 -1.0865751995 0.1675684218
H 1.9926992358 -1.6540605512 0.7406638929
O 0.0730240393 -1.2426963175 0.9006324499
O 1.1348395783 -1.5825006229 -1.1446312989
O 2.1295080295 0.7667441132 1.3484924954
O 0.3880192301 1.0217955708 -1.8629864688
O -0.5441726225 1.6559215692 1.6082941058
O -3.1642214707 -0.6697155071 -0.6857795414
H -1.8098284339 -2.1327424627 -0.5847709071
H -1.3321762007 -0.7667786321 -1.6285133334
H 0.8389911506 -2.49986038 -1.1068777019
H 2.4601325981 1.6722246241 1.3077429348
H 0.5786887696 0.0901689976 -2.0485944122
H 0.1700067178 1.1996732942 2.0792986389
H -3.2323182399 0.2840472512 -0.8051118678
*
