! pbe def2-sv(p) def2/J RI DEFGRID1 loosescf d4 GCP(DFT/SV(P)) printgap
%output
    printlevel normal
end
* xyz 0 1
C 1.9273486281 -0.088601032 0.0077512031
C 0.6858138243 0.3527986722 -0.0476581146
C -0.5319653756 -0.517526107 0.0520239675
O -1.6803794298 0.2995454979 -0.0193937982
H 2.7684600328 0.5771800038 -0.0714150984
H 2.1546296127 -1.1348785448 0.1337962811
H 0.4611526088 1.4017559623 -0.1728013645
H -0.513509172 -1.0760289961 1.0013670867
H -0.5306620313 -1.2532328019 -0.7681443992
H -2.467063254 -0.2509004197 0.0406573372
*
