! pbe def2-sv(p) def2/J RI DEFGRID1 loosescf d4 GCP(DFT/SV(P)) printgap
%output
    printlevel normal
end
* xyz 0 1
C -2.3638262402 -0.9328169846 -0.0468521323
C -1.1973437207 -0.1262749554 0.59730009
H -1.5580206719 0.3662216577 1.5069492217
C -0.6469626071 0.9652509833 -0.328820422
H -0.5940375222 0.5956802646 -1.3663270447
C 0.7767384909 1.3334290614 0.1331064575
H 0.735477978 1.6092366018 1.1950457646
C 1.7122053092 0.1251754712 -0.0459386464
H 2.1283688163 0.1218821853 -1.0594912151
C 0.8869352804 -1.1769587311 0.1107770896
H 1.5254378872 -1.9480308413 0.5770059907
O -0.1665822837 -1.0089310103 1.0290259701
O 0.4587422398 -1.5731032057 -1.1479490647
O 2.814958538 0.1607018232 0.8139244652
O 1.2129605592 2.4954363816 -0.5258975101
O -1.4909243743 2.0840942697 -0.2641137017
O -2.0365426392 -2.2928111486 -0.2114682818
H -2.5827651977 -0.5489674598 -1.0439446054
H -3.2633049994 -0.8331080661 0.5705598188
H -0.3497274884 -2.1150603792 -1.048854815
H 2.5059544346 0.1505986566 1.7278405712
H 1.4832388112 2.2692583103 -1.424079958
H -0.9363603156 2.8640504157 -0.4196296975
H -1.7583359751 -2.6329603904 0.6499736388
*
