! pbe def2-sv(p) def2/J RI DEFGRID1 loosescf d4 GCP(DFT/SV(P)) printgap
%output
    printlevel normal
end
* xyz 0 1
C -2.8858508406 -0.0659694536 -0.0056079022
C -1.3908603326 -0.0040600407 0.0023830074
C -0.7161904137 1.2126026661 0.0026830368
C 0.6664047108 1.2271273665 0.002098663
C 1.3545977895 0.0169092105 0.0007396351
N 0.7138470033 -1.145164799 0.002242647
C -0.6053991546 -1.1508609228 0.0032480659
C 2.8502772067 -0.0445749813 -0.0045471243
H -3.2745628494 0.3356352895 -0.9413552977
H -3.2308746184 -1.091393416 0.1005415349
H -3.2964884661 0.5296370555 0.8085368959
H -1.2735000028 2.1396750439 0.0040115342
H 1.2064223049 2.1624100004 0.0035330919
H -1.0624573456 -2.1332946599 0.0046897454
H 3.2834891157 0.950770255 0.0414702576
H 3.1977594292 -0.6300985742 0.84406228
H 3.1937473309 -0.544132003 -0.9085415703
*
