! pbe def2-sv(p) def2/J RI DEFGRID1 loosescf d4 GCP(DFT/SV(P)) printgap
%output
    printlevel normal
end
* xyz 0 1
C -2.3693136469 -1.1959778236 -0.3113409812
C -1.0572149954 -0.6329601321 0.2434838197
H -1.1114000627 -0.6126288277 1.3444005513
C -0.7884247178 0.7973701647 -0.2520672638
H -0.8195318218 0.8019883867 -1.3556321552
C 0.6115964253 1.2292005259 0.1992995305
H 0.6098602382 1.3030112812 1.2997111647
C 1.6627935633 0.1985624551 -0.2227987019
H 1.6931299484 0.1628373701 -1.3263958849
C 1.2517838856 -1.1916315501 0.3002397558
H 1.2597998969 -1.1806771666 1.400579682
O -0.0434402287 -1.5095415269 -0.1864734561
O 2.1034004088 -2.1974004963 -0.0796154242
O 2.9215837591 0.5270622517 0.2918724404
O 0.9721086071 2.4701145604 -0.3591617361
O -1.7005390355 1.7336714558 0.2646676843
O -3.4481380583 -0.4174486737 0.1644194285
H -2.4550092192 -2.2381634483 0.0155025321
H -2.3259255442 -1.1762870103 -1.4081102649
H 2.1411030672 -2.2331415554 -1.0437575806
H 3.0612239645 1.4672544165 0.1178504154
H 0.2245985398 3.0657184003 -0.2258866695
H -2.5729045095 1.3144254158 0.2945814913
H -4.275034635 -0.8221407541 -0.1175108553
*
