! r2scan-3c def2/J RI DEFGRID2 scfconv6 printgap
%output
    printlevel normal
end
* xyz 0 1
C -1.5900997156 0.1456827918 -0.5045209001
C -0.6710424957 -0.492357565 0.5314263494
C 0.6890496263 0.2171090676 0.63347452
N 1.533138913 0.1317613969 -0.5437201428
H -1.1633147791 0.0756112994 -1.5035306827
H -2.5549835027 -0.3560401607 -0.5169843534
H -1.751538873 1.1965533641 -0.2725931612
H -0.5075234437 -1.5434998574 0.2770907101
H -1.1523068676 -0.4586533021 1.5107816518
H 0.5297643629 1.2779411504 0.8461002398
H 1.2528263809 -0.2129567563 1.4668222086
H 1.6965234992 -0.8403242783 -0.7860147423
H 1.0790552829 0.5743076545 -1.3352931492
*
