! r2scan-3c def2/J RI DEFGRID2 scfconv6 printgap
%output
    printlevel normal
end
* xyz 0 1
C -2.1232058807 -0.8820487527 -0.3446421222
C -1.1924492546 -0.347765978 0.7687795806
H -1.796074322 -0.4028793116 1.6888456069
C -0.7732732842 1.1246394009 0.5907008664
H -1.6484853767 1.6988430831 0.2355704269
C 0.3885269283 1.3080638061 -0.4061574781
H 0.8228334652 2.2967312283 -0.2068795774
C 1.5130699615 0.2905676979 -0.1251709741
H 2.1520204319 0.2225103795 -1.0115349278
C 1.0258886044 -1.1497939355 0.1973178395
H 1.825796434 -1.6211094123 0.7852617618
O -0.0838179858 -1.1689425635 1.0708543549
O 0.8661669191 -1.938371556 -0.9248783293
O 2.318893565 0.7750362473 0.9158503598
O -0.0479091776 1.2312664007 -1.7495175118
O -0.3043920894 1.6626142764 1.8082239323
O -1.5779521581 -0.9858438052 -1.630908778
H -3.0175529357 -0.2406588147 -0.3582833753
H -2.4255940049 -1.8956631869 -0.0693572985
H 0.009554923 -1.7405896822 -1.3567660295
H 1.7501474672 0.9418724341 1.6813855617
H -0.3577965991 2.0950039416 -2.040191383
H -0.906603894 1.4266548006 2.523389872
H -1.1557717335 -0.1416894554 -1.8830611558
*
