! pbe def2-sv(p) def2/J RI DEFGRID1 loosescf d4 GCP(DFT/SV(P)) printgap
%output
    printlevel normal
end
* xyz 0 1
C 3.3529881162 0.0810170809 0.1634368469
N 1.9291969676 0.2953034011 0.2733869526
C 1.474186013 1.4210023699 1.0574752942
C 1.0742623223 -0.5435430923 -0.3573954072
O 1.4447483999 -1.4897319339 -1.0267412637
C -0.3788768889 -0.2213791472 -0.1705273226
C -1.08326517 -0.7667327663 0.8950481742
C -2.435399897 -0.5085010646 1.0372533882
C -3.090407392 0.2917739052 0.1164443892
C -2.3930086569 0.828541965 -0.9525161096
C -1.0409268288 0.571760238 -1.0986200573
H 3.8369239282 0.9418615673 -0.3033227549
H 3.5067160789 -0.7996252975 -0.4579813774
H 3.7933773995 -0.0897406587 1.1483536574
H 0.8617900985 1.0945993037 1.9013980273
H 0.8816134594 2.1106729314 0.4518762543
H 2.3416261783 1.9525289249 1.4422608611
H -0.5714605164 -1.399595337 1.6059242597
H -2.9797080293 -0.9359311597 1.8666133534
H -4.1458958031 0.4917050059 0.2283373424
H -2.9037596251 1.4460228496 -1.6768136364
H -0.4955015657 0.9803620329 -1.9371666705
*
