! pbe def2-sv(p) def2/J RI DEFGRID1 loosescf d4 GCP(DFT/SV(P)) printgap
%output
    printlevel normal
end
* xyz 0 1
C -2.1738559046 -1.242755104 0.0075720163
C -1.189522959 -0.358827928 0.8057022015
H -1.6565968169 -0.1038769443 1.7647164056
C -0.8683895198 0.9484943746 0.0542179732
H -1.0442104063 0.8050694981 -1.0234412945
C 0.6068618748 1.2967323131 0.263099077
H 0.8079779623 1.3709701705 1.343382547
C 1.4419466976 0.1663355167 -0.3373928522
H 1.2200942245 0.12561419 -1.4179825292
C 1.0376881158 -1.1750726604 0.3158544663
H 1.8796347414 -1.5173191024 0.9344636883
O -0.0190380655 -1.0685285165 1.2033427672
O 0.7433525068 -2.1487285101 -0.6700118154
O 2.8158884506 0.3601307643 -0.1371763693
O 0.9603493428 2.4943497644 -0.3815428679
O -1.629724792 2.0405586458 0.5254839956
O -1.8296326387 -1.3901003948 -1.3393211034
H -3.1617713796 -0.7733887841 0.0213570928
H -2.2375254314 -2.2157947462 0.5114937663
H 1.5573785785 -2.3862609617 -1.1255714547
H 3.0023070917 1.2882032687 -0.3310799143
H 0.2742490919 3.1395624774 -0.169824152
H -2.5585372862 1.8813691767 0.329648061
H -0.9628831132 -1.830040254 -1.3666863864
*
