! pbe def2-sv(p) def2/J RI DEFGRID1 loosescf d4 GCP(DFT/SV(P)) printgap
%output
    printlevel normal
end
* xyz 0 1
C -2.4210968553 -0.7089975855 0.0135548903
C -0.9968291469 -0.2518480401 0.3514040796
H -0.9403496085 0.0010057563 1.4188601724
C -0.5545860879 0.9640104215 -0.4788050033
H -0.6077985881 0.6986584903 -1.5469451252
C 0.907361685 1.3481957636 -0.1493636518
H 0.8648034454 2.2175188507 0.5169094164
C 1.651329912 0.1897266248 0.5503569669
H 2.7242281236 0.3048866957 0.3304643745
C 1.1965371788 -1.1355857325 -0.0683188624
H 1.7187199677 -1.9744108142 0.419471683
O -0.1651160739 -1.3847322354 0.0961405277
O 1.5316506063 -1.0815262009 -1.4332820783
O 1.4292348944 0.1177034524 1.9331224386
O 1.6119291005 1.7655222138 -1.2827760537
O -1.3468597388 2.0927214037 -0.2054631464
O -2.8026955884 -1.8138032249 0.7826114691
H -2.4711809108 -0.95096298 -1.060632551
H -3.1380094868 0.0836227727 0.2402671742
H 1.1831688802 -1.8724043818 -1.8619781958
H 1.6970115751 0.9523632355 2.3349539741
H 1.7493609453 0.9914644258 -1.8475629891
H -2.2230339757 1.9800797627 -0.5880539279
H -2.0653501996 -2.4366109251 0.7770325354
*
