! r2scan-3c def2/J RI DEFGRID2 scfconv6 printgap
%output
    printlevel normal
end
* xyz 0 1
C -1.7522530468 -0.8022187194 0.0049899563
C -0.5024945054 0.0032356697 -0.336571192
C -0.6377811958 1.4492424201 0.13297144
C 0.7369339459 -0.6455391539 0.293752089
O 1.9396045322 -0.0109725536 -0.0701921549
H -1.6671068683 -1.8233414114 -0.3604352145
H -2.6299766897 -0.346890236 -0.4472826847
H -1.8978802002 -0.8342156906 1.0824103265
H -0.3685105284 -0.0009577381 -1.4267225898
H -1.436765678 1.9550080634 -0.4041334
H 0.2925125347 1.9868338353 -0.0346055779
H -0.8620785582 1.4782108217 1.1969146695
H 0.6863685276 -0.5686481759 1.382359652
H 0.7718213492 -1.7120298724 0.0233170636
H 2.0102572613 -0.0160414743 -1.0313893862
*
