! pbe def2-sv(p) def2/J RI DEFGRID1 loosescf d4 GCP(DFT/SV(P)) printgap
%output
    printlevel normal
end
* xyz 0 1
C 1.7081274748 0.0068121096 -0.9131369375
N 1.1018103538 -0.002171897 0.4056371389
C 0.3231408874 -1.1918913278 0.6912933012
C -1.0693969032 -1.1673526732 0.0077486467
O -1.2405347703 -0.0003472545 -0.7652206905
C -1.0612649437 1.1728987816 -0.0033911864
C 0.3191110086 1.1811433185 0.7045977087
H 0.9866725794 0.0057737335 -1.7376062775
H 2.3453994982 -0.8728581991 -1.0018247573
H 2.3351153149 0.8945437871 -0.9946706796
H 0.89461119 -2.0630883513 0.3693980829
H 0.2024747575 -1.2457253975 1.7784404736
H -1.1861124604 -1.9949624805 -0.6938033652
H -1.8691192912 -1.2290616936 0.7628599853
H -1.1503753362 1.993476945 -0.7171954561
H -1.8727331668 1.2590638393 0.7367523203
H 0.8958198359 2.0594181566 0.4123872684
H 0.18038394 1.2099260175 1.7904291717
*
