! pbe def2-sv(p) def2/J RI DEFGRID1 loosescf d4 GCP(DFT/SV(P)) printgap
%output
    printlevel normal
end
* xyz 0 1
C -2.0307996621 -1.443066889 -0.0761304701
C -1.0004039297 -0.5343501877 0.6156850614
H -1.4411551109 -0.1869438928 1.5598950349
C -0.6894064439 0.7117768259 -0.227942817
H -0.6419352493 0.4544897555 -1.3017936764
C 0.6741434764 1.2550905827 0.2117350134
H 0.6513646743 1.3977143688 1.3040140855
C 1.7635661001 0.2300772587 -0.1322334642
H 2.0025492092 0.3409925608 -1.2040128846
C 1.2572750795 -1.2114133821 0.1112662842
H 2.038969246 -1.7688481731 0.6374052581
O 0.1597280574 -1.2545499991 0.9868694252
O 1.0276807588 -1.8991084976 -1.0783873704
O 2.9178325367 0.4271865381 0.6366435229
O 0.9832441004 2.4644011338 -0.4327224521
O -1.6478948235 1.7212358284 -0.036852141
O -3.1816449847 -0.6635898608 -0.3420230528
H -2.2586975799 -2.2789435499 0.5944354936
H -1.6168024011 -1.8505506534 -1.0079989935
H 0.5004865278 -1.361107011 -1.6817081007
H 3.1746560962 1.3538814581 0.5500979184
H 0.1890496136 3.0129833412 -0.395159425
H -2.5189155507 1.317805648 -0.1543436123
H -3.8846974826 -1.2402690664 -0.6576405652
*
