! pbe def2-sv(p) def2/J RI DEFGRID1 loosescf d4 GCP(DFT/SV(P)) printgap
%output
    printlevel normal
end
* xyz 0 1
C -1.715506747 -1.4051436908 -0.4691137246
C -1.1067683829 -0.5117488784 0.6312663967
H -1.8176257074 -0.4540404256 1.4669907959
C -0.8680835458 0.9315455452 0.1127209545
H -1.1963473072 0.9894622019 -0.9328684374
C 0.6228426874 1.2648327286 0.2019501641
H 0.9160744714 1.3775782869 1.2544244172
C 1.4470364533 0.1159374567 -0.4032577508
H 1.1297256042 -0.0602248344 -1.4445440561
C 1.1963150905 -1.1685832726 0.4015699974
H 2.0260598527 -1.2963744037 1.1130482453
O 0.0515112057 -1.0848318164 1.2162516558
O 1.1329824176 -2.2361652301 -0.4905162896
O 2.8126792433 0.4239858621 -0.3604129147
O 0.9585639569 2.4851460813 -0.4096423246
O -1.6653637901 1.8724787341 0.7850630783
O -2.8306303094 -0.8111593414 -1.0762896028
H -1.9706975751 -2.3793509497 -0.0282303621
H -0.9881828935 -1.5662367417 -1.2668455787
H 1.0677794483 -3.0620188899 0.0034131851
H 2.8943645492 1.3759852419 -0.522263122
H 0.4946364483 2.556433426 -1.2526826664
H -1.3184302618 2.0067890202 1.6751496208
H -3.4806035732 -0.5837980048 -0.4012581893
*
