! pbe def2-sv(p) def2/J RI DEFGRID1 loosescf d4 GCP(DFT/SV(P)) printgap
%output
    printlevel normal
end
* xyz 0 1
C -2.4459971731 -0.838222782 0.0947144972
C -1.046750173 -0.4889851763 0.6031168119
H -0.9702539925 -0.748923409 1.6713710854
C -0.7504811146 1.023136955 0.4698450859
H -1.6226385787 1.5269011567 0.0318770264
C 0.4487424235 1.231191137 -0.4754788651
H 0.7590706521 2.2850779829 -0.4470693002
C 1.6422101963 0.3828118864 0.0260048939
H 2.4445865739 0.4233074359 -0.7185496011
C 1.2074656141 -1.1005795176 0.1987883362
H 1.3709344671 -1.3968135436 1.2486310313
O -0.1527540734 -1.2754551792 -0.1487524654
O 1.9425466175 -1.9767223253 -0.571947526
O 2.1820439409 0.9140053458 1.2055322985
O 0.1063816795 0.9528988943 -1.8030563686
O -0.4952658916 1.5199461238 1.7704329262
O -2.5669770906 -0.3505095775 -1.2231299386
H -3.1954867105 -0.3797271794 0.7535441647
H -2.5550194187 -1.9280020603 0.1205909098
H 1.7109112591 -1.8335298286 -1.4985856117
H 1.4649597058 1.0017771053 1.8529708162
H -0.5043197703 0.199970616 -1.8125132499
H -0.398114121 2.4786194894 1.7257473711
H -3.3730472676 -0.6972904888 -1.6180646334
*
