! r2scan-3c def2/J RI DEFGRID2 scfconv6 printgap
%output
    printlevel normal
end
* xyz 0 1
C -2.1167267416 1.0822084706 -0.6096637374
C -1.6407197065 -0.2593434522 -0.0507523429
C -1.7425423628 -0.261433713 1.4718538121
C -0.2797608984 -0.7192512296 -0.6123086566
C 1.0684811279 -0.1160241315 -0.1573239886
C 2.1140458106 -0.5734509158 -1.1865231768
C 1.0723077696 1.4120887952 -0.1272377139
C 1.5027255212 -0.6514765823 1.2106113194
H -2.0010106243 1.1117534506 -1.6908579791
H -3.1716365421 1.2208834922 -0.3789396729
H -1.5705621863 1.9157021722 -0.1809024939
H -2.350457067 -1.0140443119 -0.4174538586
H -1.3889886799 -1.2041452748 1.881835496
H -1.1683657582 0.5520297315 1.906970641
H -2.7815388462 -0.1295781952 1.7695628194
H -0.2097538928 -1.7962124175 -0.4329229235
H -0.3434250149 -0.5866222632 -1.6961942217
H 3.1079454493 -0.2406869236 -0.8949498664
H 1.8941679641 -0.1628138313 -2.1698052464
H 2.1278709455 -1.6585747659 -1.2641180103
H 0.4517966534 1.7928737294 0.6786175282
H 0.7157990133 1.8173576131 -1.070756736
H 2.0864489099 1.7732824616 0.0361100762
H 1.4830103258 -1.7392305925 1.2206258576
H 0.8629932333 -0.2889579791 2.0075681447
H 2.5201349726 -0.3300300725 1.4266438869
*
