! pbe def2-sv(p) def2/J RI DEFGRID1 loosescf d4 GCP(DFT/SV(P)) printgap
%output
    printlevel normal
end
* xyz 0 1
C -2.5892529361 -0.6968860656 -0.6230129439
C -1.4664153216 -0.0177605343 0.1264805523
O -1.4917017477 0.1039844884 1.3246120199
C -0.3501209783 0.5265153961 -0.7538655577
C 0.5055612641 -0.6056460645 -1.3445497781
C 1.3275083077 -1.2975073368 -0.2625473191
C 2.2495849128 -0.290148181 0.4157805584
C 1.4266156738 0.8306606101 1.0405237468
C 0.5503846997 1.5163875939 -0.005347938
H -3.3140274662 -1.0949725986 0.0822933115
H -3.0802529331 0.0254817887 -1.2718860075
H -2.2079764172 -1.5030297466 -1.243851455
H -0.8371485393 1.0506192348 -1.5855156981
H -0.1238946556 -1.3307696798 -1.8634579229
H 1.1838105016 -0.1705880543 -2.0830649738
H 0.659670898 -1.7362409291 0.481930804
H 1.9137067491 -2.1044158601 -0.708324596
H 2.8444338415 -0.7867262349 1.1846754343
H 2.9380945205 0.1257752686 -0.3248511921
H 0.7905303111 0.420072113 1.8241777559
H 2.0882142355 1.5707030158 1.4958508659
H -0.071904635 2.2696256044 0.4818477457
H 1.1871304905 2.0235729249 -0.7351891639
*
