! r2scan-3c def2/J RI DEFGRID2 scfconv6 printgap
%output
    printlevel normal
end
* xyz 0 1
C -2.3697778043 0.066876412 -0.1222456654
C -0.921321656 0.4766103215 0.1165080454
C 0.0029166683 -0.7029507117 0.1518935188
C 1.320578103 -0.6326745047 0.0353719383
C 2.0840479375 0.641428327 -0.1516386551
H -2.4653667566 -0.4539160819 -1.0728148718
H -3.0168396908 0.9412967933 -0.143534025
H -2.7154369597 -0.5956512597 0.668726564
H -0.6024836656 1.1700245174 -0.6665562392
H -0.8481286169 1.0160577778 1.0672219244
H -0.4699527031 -1.6647896745 0.2963712125
H 1.90744009 -1.5393407499 0.0850518695
H 1.6858802109 1.2108921666 -0.991323696
H 3.1360481384 0.4422306274 -0.3354055841
H 2.0012024323 1.2691872342 0.7360777438
*
