! pbe def2-sv(p) def2/J RI DEFGRID1 loosescf d4 GCP(DFT/SV(P)) printgap
%output
    printlevel normal
end
* xyz 0 1
C -2.4024059002 -0.8354964315 0.3967103854
C -0.9480877028 -0.398745867 0.6178807157
H -0.6759037901 -0.5556173684 1.672306378
C -0.7377465323 1.0939391193 0.2632476688
H -1.5434132352 1.4339734157 -0.397311811
C 0.6041189493 1.245781451 -0.4869243458
H 0.9102040631 2.2982291384 -0.4571512608
C 1.660495479 0.366593062 0.2194570198
H 2.6316045152 0.4762860732 -0.2811826075
C 1.2395029999 -1.1177358744 0.0789855925
H 1.4720988163 -1.6391160251 1.0200688132
O -0.1412136352 -1.2282989407 -0.205438965
O 1.9333356881 -1.7636204989 -0.9201050881
O 1.7638615839 0.6847890699 1.5924233313
O 0.5024574413 0.8936294395 -1.8429259133
O -0.797800709 1.9063570505 1.4010451238
O -2.7489501293 -0.7921958345 -0.9608900738
H -3.0669377861 -0.1431282191 0.9160981395
H -2.5394891129 -1.8459725343 0.8027581886
H 1.7468623361 -1.3269850355 -1.7634126846
H 2.2739653934 1.4970963514 1.6876651041
H -0.09328157 0.1337580369 -1.9057276887
H -0.0969162047 1.6193435641 2.0053834116
H -2.180455283 -1.4187150796 -1.424867072
*
