! r2scan-3c def2/J RI DEFGRID2 scfconv6 printgap
%output
    printlevel normal
end
* xyz 0 1
C 1.7259144651 -1.0313298276 1.1515009974
C 3.1005767443 -1.1370083357 1.2379777405
C 3.9157169372 -0.3160616495 0.4722799251
C 3.339689139 0.6251523029 -0.3781993282
C 1.9616121396 0.7347139061 -0.457515018
C 1.1429221339 -0.0975666195 0.2990884721
C -0.3213063883 0.044319858 0.2024393072
C -0.8983288091 1.2995013294 0.3647195284
C -2.2696723507 1.4717491163 0.2889888212
C -3.1019608969 0.3812767871 0.0397847549
C -2.5353247926 -0.8800629573 -0.1400586511
C -1.1535074925 -1.0465564397 -0.0584959411
Cl -0.4909801667 -2.6071768192 -0.3430907968
Cl -3.547249624 -2.224726981 -0.4671203531
Cl -4.8011030764 0.5826464071 -0.0525980026
Cl -2.949029122 3.033188934 0.5043680003
Cl 4.3318625653 1.6580637527 -1.3338421162
Cl 5.6261648188 -0.4607678942 0.580015922
H 1.1034063826 -1.6643137815 1.7631461724
H 3.5527842071 -1.8577095267 1.9004651724
H 1.5260720859 1.458813006 -1.1277916621
H -0.2680716176 2.1500105433 0.5694877072
*
