! pbe def2-sv(p) def2/J RI DEFGRID1 loosescf d4 GCP(DFT/SV(P)) printgap
%output
    printlevel normal
end
* xyz 0 1
C -2.2180449052 -0.6467276786 -0.6977633694
C -1.3720629959 -0.4969463479 0.5858216729
H -2.0268472633 -0.7343401466 1.4364661839
C -0.878083164 0.9409637469 0.8074644769
H -1.6993483793 1.6233009415 0.5351542247
C 0.3351747276 1.3226640958 -0.0663937406
H 0.9969782696 1.9742076955 0.5265218043
C 1.1566254092 0.0916985894 -0.4637610479
H 0.7776513598 -0.3125694491 -1.4180514692
C 0.9789571406 -1.0009383426 0.6073815989
H 1.2717953124 -0.6058340178 1.5940178034
O -0.3375986752 -1.4709719735 0.6070898628
O 1.8194728338 -2.0748133223 0.3382018211
O 2.5086133245 0.4568187801 -0.5910500923
O -0.1434476222 2.0313456809 -1.1911069012
O -0.5848707796 1.0598886606 2.1791241167
O -1.5742875246 -0.2863578652 -1.8850579825
H -3.1438703293 -0.0688625914 -0.5608295099
H -2.4751434129 -1.7029125477 -0.8053587431
H 1.3359837778 -2.6774994792 -0.2417149874
H 3.0365145953 -0.3392395496 -0.4376701464
H 0.6088119839 2.2183100637 -1.7655802817
H -0.3571928527 1.9746052888 2.3824073372
H -1.3156247128 0.6494284607 -1.8377168231
*
