! pbe def2-sv(p) def2/J RI DEFGRID1 loosescf d4 GCP(DFT/SV(P)) printgap
%output
    printlevel normal
end
* xyz 0 1
C -0.1771840803 -2.2902249766 -0.4922640515
C 0.4949988145 -0.9784988822 -0.2366738188
C 1.8883938673 -0.9412954541 -0.2129621626
C 2.5858355183 0.2183213639 0.0626000033
C 1.9021194919 1.3916916254 0.3467835479
C 0.524138462 1.3840573727 0.3458554333
C -0.1740684626 0.215508046 0.0452886013
N -1.6116718598 0.3283911874 0.0545251983
O -2.2553191402 -0.3299118316 -0.7355963982
O -2.0944816946 1.1064114192 0.8501015258
H -0.0036601902 -2.9548646465 0.3544101696
H -1.2452976437 -2.1880765594 -0.6476927736
H 0.2557435098 -2.7583041642 -1.3741012601
H 2.4287736036 -1.8536775568 -0.4179328887
H 3.6652760093 0.2087505781 0.0606415184
H 2.4394535439 2.300483715 0.5670890171
H -0.039427823 2.2780245407 0.5669155427
*
