! pbe def2-sv(p) def2/J RI DEFGRID1 loosescf d4 GCP(DFT/SV(P)) printgap
%output
    printlevel normal
end
* xyz 0 1
C -2.2334427357 -1.0671261084 0.3527562522
C -0.9509220066 -0.3766061215 0.8649797817
H -1.082114101 -0.1220654184 1.9258195085
C -0.7160945678 0.9329049233 0.0807681888
H -1.1759064349 0.8221448409 -0.9140055127
C 0.7555099399 1.3225081261 -0.167403494
H 0.9658370052 2.2048153405 0.4497941199
C 1.77796043 0.2148717336 0.1824513606
H 2.6725095945 0.3557841839 -0.4350978469
C 1.1231539674 -1.137143199 -0.1286184426
H 1.8135382361 -1.9684524587 0.0623869397
O 0.1020074673 -1.3389573858 0.8176728881
O 0.6875435473 -1.2444659624 -1.4441617161
O 2.1960564751 0.2662395371 1.5147717628
O 0.8468727392 1.6248269047 -1.550196328
O -1.3101841978 2.0113462228 0.7688455737
O -2.2012220341 -1.2774018617 -1.0297025331
H -3.1074013531 -0.4422599182 0.5546664189
H -2.3423582273 -2.016095366 0.8952570166
H 0.5205214501 -0.3628878767 -1.8171434705
H 1.5290342505 -0.1773858444 2.0571097936
H 1.6430917144 2.1402690408 -1.7173716157
H -2.2685695889 1.9322270904 0.7181653152
H -1.3591632482 -1.7083597864 -1.2522129234
*
