! r2scan-3c def2/J RI DEFGRID2 scfconv6 printgap
%output
    printlevel normal
end
* xyz 0 1
C -1.6025642274 0.1033887075 -0.508178815
C -0.6691724668 -0.4696117869 0.5539591101
C 0.6736356861 0.2638325694 0.6121125092
O 1.4769472912 0.0521845776 -0.5237908152
H -1.1926463897 -0.0318321434 -1.5078325635
H -2.5656174944 -0.40002485 -0.4739485143
H -1.7657733062 1.1665636921 -0.3403383075
H -0.4828739354 -1.5255090822 0.3490009801
H -1.1419945831 -0.3915150438 1.5343437941
H 0.4980863556 1.3402835113 0.7610455852
H 1.2634052338 -0.10751089 1.4535591847
H 0.986700475 0.3413401091 -1.3011915081
*
