! pbe def2-sv(p) def2/J RI DEFGRID1 loosescf d4 GCP(DFT/SV(P)) printgap
%output
    printlevel normal
end
* xyz 0 1
C -1.8560389427 -0.75415841 -1.0175437759
C -1.2593693094 -0.6528389194 0.4131217469
H -2.0168231603 -0.9920214415 1.133901235
C -0.8607676528 0.7825721247 0.7838711003
H -1.7260170223 1.4384865015 0.6073006857
C 0.3021641886 1.2870603525 -0.0829064269
H 0.8598595626 2.0215739898 0.5135250082
C 1.2681960509 0.1439311498 -0.4334044112
H 1.0204924965 -0.2462113029 -1.4371152732
C 1.1150830227 -1.0076569308 0.5785559656
H 1.3673992517 -0.6303319891 1.5822192191
O -0.1741637535 -1.5634903895 0.543592701
O 2.0245601384 -2.0216897024 0.2920072739
O 2.5863904011 0.6256683234 -0.4297021504
O -0.2384691019 1.8884149192 -1.2389455454
O -0.4494476979 0.8775254058 2.1270478813
O -2.6539163076 0.3340488316 -1.3790878835
H -2.495015858 -1.639235198 -1.0644666819
H -1.0340185225 -0.8936646863 -1.7303977358
H 1.5843972807 -2.6546751325 -0.2891062752
H 3.1717766192 -0.1234484564 -0.2520217162
H 0.4910183981 2.253153445 -1.7528890044
H -1.1490982111 0.5386815187 2.6976249558
H -2.0737844209 1.0941236179 -1.5381274512
*
