! pbe def2-sv(p) def2/J RI DEFGRID1 loosescf d4 GCP(DFT/SV(P)) printgap
%output
    printlevel normal
end
* xyz 0 1
C 2.4048676609 -0.6618803773 0.0192774443
C 1.0407097244 -0.1322228916 0.4348102476
H 0.9442712072 -0.1960988529 1.5328916922
C 0.7601179431 1.3033285487 -0.0201415765
C -0.7642484979 1.3226110208 -0.0598871273
C -1.1142975325 -0.118452149 -0.4677934762
H -1.2732030821 -0.1818577787 -1.5550012084
O 0.0225107833 -0.9195294365 -0.1638749194
C -2.352372548 -0.6535695699 0.245202523
H 2.505848881 -0.6187895745 -1.0621983633
H 3.1897643495 -0.0665082505 0.4783759448
H 2.5095122645 -1.6961119688 0.3344380068
H 1.1815964594 2.0436279323 0.6561268119
H 1.1708858558 1.4567649767 -1.0193424646
H -1.1648712867 1.5329388319 0.9332109318
H -1.1642690502 2.0529330502 -0.7598252745
H -3.2179971935 -0.0459534369 -0.0063945612
H -2.2013781051 -0.6335904226 1.3220150751
H -2.5369145114 -1.6804070654 -0.0579697555
*
