! r2scan-3c def2/J RI DEFGRID2 scfconv6 printgap
%output
    printlevel normal
end
* xyz 0 1
C -2.3718299095 0.1088888491 0.1959750155
C -0.9637309313 0.3960564444 -0.3145439569
C -0.0031793258 -0.6922450196 0.0663953029
C 1.3132843507 -0.586889598 0.1600861901
C 2.1335660566 0.6349632836 -0.0972398583
H -3.0518958883 0.9095745961 -0.0869490114
H -2.3723474889 0.0250366049 1.2807474317
H -2.7477854118 -0.8231777897 -0.2209487366
H -0.9890579391 0.4859257717 -1.405958857
H -0.6252008543 1.3546543968 0.0840136391
H -0.4635577505 -1.6510497155 0.2671038977
H 1.8891703595 -1.4591550875 0.4439401263
H 2.7191928963 0.8853018776 0.7874968433
H 1.5191236674 1.4884292813 -0.3663734138
H 2.83402415 0.443596857 -0.9102568778
*
