! pbe def2-sv(p) def2/J RI DEFGRID1 loosescf d4 GCP(DFT/SV(P)) printgap
%output
    printlevel normal
end
* xyz 0 1
C -2.545171887 -0.9138839748 0.2741960687
C -1.1312008718 -0.4403136999 0.6510072254
H -1.0343939832 -0.37009041 1.7485459678
C -0.848762809 0.9486721255 0.0350577946
H -1.0961038399 0.9032998178 -1.0331754831
C 0.6340129426 1.2988616564 0.2095263744
H 0.8641886571 1.4135693357 1.2793512875
C 1.4930894422 0.1546913452 -0.3444969467
H 1.2914612067 0.0320542393 -1.422593698
C 1.1015120927 -1.1508315179 0.367509469
H 1.2854666732 -1.0239778651 1.4574758778
O -0.2516335212 -1.4251909959 0.1478506276
O 1.8115260188 -2.2318555414 -0.1218924902
O 2.8624874386 0.3846358973 -0.1302743364
O 0.992251271 2.5251135334 -0.3817485621
O -1.6881683453 1.9373700269 0.5652676693
O -2.6304144551 -1.1991344254 -1.0911198049
H -3.2628338035 -0.1171973498 0.4797163322
H -2.7927083674 -1.7985028333 0.8760176013
H 2.7104117656 -1.9276732052 -0.3036101107
H 3.0198333597 1.3296415927 -0.2616886882
H 0.4581796277 2.6664853981 -1.1721218874
H -1.4779757915 2.0760695226 1.496623432
H -1.9137367038 -1.8147346228 -1.2958030847
*
