! pbe def2-sv(p) def2/J RI DEFGRID1 loosescf d4 GCP(DFT/SV(P)) printgap
%output
    printlevel normal
end
* xyz 0 1
C -2.3852102875 -0.7588519009 -0.073741213
C -1.0122739523 -0.2545129531 0.3886464068
H -1.1092252189 0.0951751445 1.4268900535
C -0.5264526738 0.9071009255 -0.4759245074
H -0.5051292569 0.576820011 -1.5284051927
C 0.9021016284 1.3474845894 -0.0822462848
H 0.833360941 2.1113877376 0.7011499814
C 1.7403574719 0.1690386806 0.4695405907
H 2.7746150409 0.3000217604 0.1355697571
C 1.1849483473 -1.1434392102 -0.0955921339
H 1.7629578109 -1.997529971 0.2919241959
O -0.1200872054 -1.3774037312 0.3541755436
O 1.2721136732 -1.0803927208 -1.491918201
O 1.7880344281 0.1244686684 1.8669360295
O 1.5347089484 1.9664957724 -1.1720186104
O -1.442904174 1.9617619242 -0.3259550323
O -2.8760838611 -1.7651303198 0.7664092598
H -2.299171202 -1.1218306292 -1.1089833125
H -3.0971869336 0.0664014254 -0.0397180019
H 0.9083768012 -1.8918178839 -1.8664413419
H 0.9503575629 -0.2140338201 2.2060768786
H 1.7145612536 1.2893094396 -1.8373441153
H -1.0720948329 2.7390566627 -0.7619823176
H -2.183973867 -2.4308567008 0.861571917
*
