! r2scan-3c def2/J RI DEFGRID2 scfconv6 printgap
%output
    printlevel normal
end
* xyz 0 1
C -3.5250283107 0.0002146037 3.70684e-05
C -2.8401027749 -0.9215531628 -0.7721074982
C -1.4549596518 -0.9153565376 -0.7669924933
C -0.7397935752 -5.3004e-06 5.80345e-05
C -1.4547903471 0.9154459278 0.7671877295
C -2.8399388781 0.9218424188 0.7722262994
Cl -0.5853870108 2.0510461661 1.7325013362
C 0.7397926137 -2.33068e-05 -7.2866e-06
C 1.4548814821 -0.9153883307 0.7671644753
C 2.8400186665 -0.921719922 0.7721959432
C 3.5250400964 -6.19154e-05 -5.35925e-05
C 2.8400296989 0.9215895229 -0.7722612787
C 1.4548594579 0.9153115838 -0.7671883284
Cl 0.5855888363 2.050972897 -1.732552659
Cl 0.5855178852 -2.0510886443 1.7324436735
Cl -0.5857248669 -2.0510374156 -1.7324976172
H -4.6038346788 0.0002221103 0.0002750264
H -3.369310852 -1.6410869677 -1.3757434356
H -3.3690046085 1.6412370504 1.376194625
H 3.3692184445 -1.6411562419 1.3759743925
H 4.6038474025 -3.59359e-05 -1.69152e-05
H 3.369164633 1.6410612113 -1.3760682564
*
