! pbe def2-sv(p) def2/J RI DEFGRID1 loosescf d4 GCP(DFT/SV(P)) printgap
%output
    printlevel normal
end
* xyz 0 1
C -2.3225577956 -0.8221545935 -0.6512540046
C -1.0433391374 -0.550643783 0.1545491308
H -1.1694897095 -0.9436428856 1.1808167394
C -0.7420956347 0.9679282204 0.2590604445
H -1.5468565514 1.5290043924 -0.2321848038
C 0.5781252946 1.2732637634 -0.4793076032
H 0.8306961132 2.3282726934 -0.332698278
C 1.7139861487 0.4121100015 0.1134844941
H 2.580892123 0.4659030314 -0.5565999288
C 1.2512847619 -1.0729918595 0.2032368483
H 1.1356264484 -1.3455654165 1.2642534177
O 0.0104068497 -1.2466638918 -0.4740236006
O 2.1523470575 -1.9703910807 -0.3236330272
O 2.148172806 0.8993184529 1.3495822515
O 0.4374332088 1.0870336449 -1.8604970855
O -0.606534073 1.380235479 1.6051910203
O -3.4572960649 -0.2995482996 -0.0114758597
H -2.4085995198 -1.9014683196 -0.8224207839
H -2.259367521 -0.3193598878 -1.6188938784
H 2.243963658 -1.813477432 -1.2716572851
H 1.3681780392 1.1181505887 1.8799268584
H 0.226238873 0.1540017455 -2.0107776994
H -1.4816244982 1.4690520438 1.9968684892
H -3.6576661025 -0.832409897 0.7664892141
*
