! pbe def2-sv(p) def2/J RI DEFGRID1 loosescf d4 GCP(DFT/SV(P)) printgap
%output
    printlevel normal
end
* xyz 0 1
C 0.442933318 -5.69897e-05 -0.39245666
F 1.0402453632 1.0759752974 0.1234286642
F 1.0402826052 -1.0759289674 0.1234508417
Cl -1.280964232 -3.9617e-06 0.0429035896
H 0.562804129 -5.4805e-05 -1.4858414782
*
