! pbe def2-sv(p) def2/J RI DEFGRID1 loosescf d4 GCP(DFT/SV(P)) printgap
%output
    printlevel normal
end
* xyz 0 1
C -2.4702922078 -0.5322410004 -0.1599758725
C -1.0383398991 -0.1942293471 0.2657791001
H -0.9491810337 -0.3226587766 1.3563144806
C -0.6435547285 1.2528707082 -0.096672814
H -1.2293301392 1.5946574402 -0.9590929933
C 0.8606079972 1.3088786358 -0.4629367565
H 1.2109950928 2.3350794127 -0.2557793882
C 1.6186908235 0.312423112 0.4280729844
H 2.6891504314 0.3428360851 0.1909247682
C 1.133665241 -1.1212531585 0.0912365687
H 1.2185294119 -1.7358215806 1.0019775374
O -0.1933133165 -1.1260262903 -0.3807668997
O 1.9262825163 -1.7046109062 -0.8709882965
O 1.3892489606 0.5832122709 1.7938300795
O 1.1301129828 0.9578181433 -1.7972906149
O -0.9382303581 2.1471799517 0.9399241426
O -2.841752831 -1.8133934478 0.2605492908
H -2.5383319732 -0.446715104 -1.2543478532
H -3.165195748 0.171436125 0.3022204969
H 1.7938000689 -1.2043513738 -1.690382153
H 1.9632887949 1.3049945524 2.073552431
H 0.5887166173 1.4995696481 -2.38228571
H -0.5025303098 1.8228711502 1.7412214581
H -2.1521198848 -2.4212560222 -0.0359364596
*
