  13
        -28.49806466
 C          0.0001547241       -2.5113650054        0.0003567967
 C          1.2053840564       -1.8286296306        0.0000830472
 C          1.2061167998       -0.4438525451       -0.0000398372
 C          0.0000408525        0.2669024551        0.0000313877
 C         -1.2059995091       -0.4439584538        0.0000170657
 C         -1.2051065062       -1.8287261359        0.0002084462
 Cl        -2.6934454962        0.4247323166       -0.0003134747
 C         -0.0001133864        1.6819671008        0.0003859556
 N         -0.0005517545        2.8270764113        0.0005383035
 Cl         2.6934883048        0.4250748773       -0.0002814669
 H          0.0001593481       -3.5902135214        0.0006324461
 H          2.1425989679       -2.3610041924        0.0000975060
 H         -2.1422811363       -2.3612088662        0.0002887917
