! r2scan-3c def2/J RI DEFGRID2 scfconv6 printgap
%output
    printlevel normal
end
* xyz 0 1
C 1.8572800121 0.1685590533 0.1926034557
C 0.7100165521 -0.1171743961 -0.3926345009
C -0.560866842 -0.4268492278 0.3424032861
O -1.669770584 0.2851847545 -0.16542497
H 2.7489928639 0.3807324573 -0.3719933067
H 1.955936446 0.1863874403 1.2660403755
H 0.6195631987 -0.1292290797 -1.47072469
H -0.4347844856 -0.2354968162 1.4179609655
H -0.8162641189 -1.4832838105 0.2067218609
H -1.4778490168 1.2282258511 -0.1186795968
*
