! pbe def2-sv(p) def2/J RI DEFGRID1 loosescf d4 GCP(DFT/SV(P)) printgap
%output
    printlevel normal
end
* xyz 0 1
C -3.1509292306 -0.0353285649 1.0396420436
O -1.7496627921 -0.0145770594 0.8118848348
C -1.3610468116 -0.0284618025 -0.4705491355
O -2.1342714361 -0.0566061035 -1.3921189424
C 0.1462455104 -0.0054857346 -0.6001901926
C 0.7573963234 -1.2425587511 0.0669330615
C 2.2770613736 -1.2169838334 -0.0628967895
C 2.8463052875 0.053214821 0.5613262357
C 2.2371649272 1.2872453533 -0.0967416682
C 0.7174777635 1.267611911 0.0335573776
H -3.2850730038 -0.0231103701 2.118243461
H -3.5919125742 -0.935890916 0.6075864026
H -3.6220499858 0.8378867882 0.5838567102
H 0.377340262 -0.0160476101 -1.6700311011
H 0.4776872156 -1.2502735029 1.1220648136
H 0.3575609465 -2.1462000865 -0.3984251934
H 2.7009200738 -2.0958432025 0.4269496314
H 2.5520602929 -1.2570251373 -1.1192737773
H 2.6201632105 0.0640585347 1.6298906397
H 3.9321292897 0.0690219189 0.448222999
H 2.632928977 2.1922000706 0.3685180832
H 2.5106229953 1.3071037793 -1.1540918978
H 0.4377007605 1.2941461603 1.088333766
H 0.288996988 2.1454833685 -0.455014989
*
