! pbe def2-sv(p) def2/J RI DEFGRID1 loosescf d4 GCP(DFT/SV(P)) printgap
%output
    printlevel normal
end
* xyz 0 1
C -2.0434847977 -1.2421780047 -0.245739307
C -1.248217195 -0.3758310583 0.7565530751
H -1.8851008086 -0.2778204273 1.6451992575
C -0.9455107024 1.0438246416 0.21854796
H -1.3022717689 1.1642873261 -0.8114461423
C 0.5690286739 1.2903224654 0.2284960113
H 0.9110862162 1.3831076349 1.2734325595
C 1.3019103364 0.1080836056 -0.415383778
H 0.936105596 -0.0116781686 -1.4496145414
C 1.0101533335 -1.1824649472 0.3861478095
H 1.8610506693 -1.371442765 1.0500755148
O -0.0877678001 -1.0063611066 1.2632907986
O 0.8921479326 -2.3010205026 -0.4093703443
O 2.6845071439 0.3222545784 -0.4183537193
O 0.8959388172 2.454723181 -0.4940539004
O -1.6215898032 2.0519425064 0.932235488
O -1.4727142982 -1.3424023222 -1.5312911186
H -3.0632666961 -0.8458484575 -0.3084440955
H -2.0798442125 -2.262564467 0.1425306301
H 0.1412208975 -2.1916086712 -1.0190478713
H 2.8391931496 1.2063539809 -0.7768330408
H 0.2864457739 3.1532782857 -0.2251173755
H -1.3767140872 1.9963455246 1.8642879031
H -1.5929528719 -0.5168850628 -2.0134441472
*
