! pbe def2-sv(p) def2/J RI DEFGRID1 loosescf d4 GCP(DFT/SV(P)) printgap
%output
    printlevel normal
end
* xyz 0 1
C -2.9812708565 -0.070488429 -0.5619883378
C -2.0984647271 0.0799856521 0.6751374939
H -2.7402411763 0.0048425197 1.5612493657
C -1.3719782608 1.423024812 0.7209770041
C -0.4139484323 1.5875908825 -0.4537701358
C 0.5599216858 0.4190894147 -0.6739473248
H 0.8009931499 0.3945100779 -1.7439635375
C -0.0181838839 -0.9468106105 -0.354963022
O 0.3725429199 -1.9340782316 -0.9328230138
C -1.0619737158 -1.0420438439 0.7323048211
C 1.9333888344 0.6016837724 0.0315771199
C 1.928223197 0.2738681175 1.5220660741
C 2.9950351513 -0.2422891024 -0.6718650308
H -3.5809976465 -0.9747158042 -0.485413871
H -3.6544188582 0.7787374221 -0.6581989638
H -2.3791941437 -0.1450966951 -1.463921875
H -2.1001909216 2.2371692791 0.6970835768
H -0.8311901529 1.5001380136 1.6658811405
H -1.0088187006 1.7113469406 -1.3610043449
H 0.1593144904 2.5086651576 -0.3235526127
H -1.5412542669 -2.0207278821 0.6575169963
H -0.5404392353 -1.0001137874 1.6914558857
H 2.2039381564 1.6585445473 -0.0827187544
H 2.8912422846 0.5393922925 1.9544888045
H 1.7737856438 -0.7911492889 1.6802203546
H 1.1608607963 0.8302231468 2.052830286
H 3.9501810357 -0.1531442144 -0.1590376963
H 3.1275727 0.0821775106 -1.7016424205
H 2.7021207248 -1.2893402044 -0.6797109013
*
