! pbe def2-sv(p) def2/J RI DEFGRID1 loosescf d4 GCP(DFT/SV(P)) printgap
%output
    printlevel normal
end
* xyz 0 1
C -2.445236473 -0.8628544819 -0.2039985676
C -1.1076854433 -0.598315233 0.5151318502
H -1.1572005661 -0.9887560701 1.5426561064
C -0.7570847954 0.9105377599 0.5933095068
H -1.6571476488 1.4852472832 0.3446868146
C 0.3435542154 1.2044795294 -0.4462119284
H 0.5850982704 2.2715373263 -0.431316311
C 1.6071418409 0.3995016293 -0.0830912583
H 2.2587867086 0.3595814886 -0.9670756422
C 1.1924314533 -1.0521974576 0.2650331707
H 1.2139065377 -1.1768864483 1.3700092375
O -0.1075469341 -1.3318197974 -0.1944480773
O 2.0752313581 -1.9210992742 -0.3538917937
O 2.260351875 1.0251355652 0.9964147821
O -0.0769251871 0.8962494637 -1.7512359201
O -0.3800106492 1.2984185514 1.886473483
O -2.8268144248 0.1212024456 -1.1217417982
H -3.2497590336 -0.9051626786 0.5328616607
H -2.3606106236 -1.8447326286 -0.6930224928
H 1.6926953012 -2.8070276933 -0.3508054635
H 3.11562546 0.603634842 1.1361375664
H -0.0395144897 -0.0684820779 -1.8459109462
H 0.5859851118 1.2865973563 1.9561730744
H -2.0719248944 0.3724321968 -1.6762162565
*
