! pbe def2-sv(p) def2/J RI DEFGRID1 loosescf d4 GCP(DFT/SV(P)) printgap
%output
    printlevel normal
end
* xyz 0 1
C -2.0428854042 -1.1134268525 -0.1222607019
C -1.0266516487 -0.4276560246 0.8208038641
H -1.465425201 -0.4184828167 1.8251926635
C -0.7410199487 1.0476547779 0.4485865125
H -1.6152866924 1.4240409137 -0.0938543772
C 0.4953789907 1.2424461808 -0.4539762281
H 0.8261406222 2.286514151 -0.3187997964
C 1.6435528114 0.3239164024 0.0105492695
H 2.4974028106 0.4184578596 -0.6710304185
C 1.1517457706 -1.1288434154 0.0410751866
H 1.957632341 -1.7764128081 0.4312863959
O 0.1439848407 -1.2367594343 1.0078341231
O 0.7723101009 -1.5214358048 -1.2360996126
O 2.0702002304 0.6832049472 1.3033205598
O 0.1363078055 1.0202939829 -1.7916991607
O -0.625160899 1.8412894771 1.603392213
O -2.0681859465 -0.6644237149 -1.4435450915
H -3.0497889988 -0.9416971177 0.2688808422
H -1.8456098252 -2.1981172111 -0.0765462704
H 0.3991940141 -2.4107803306 -1.2028708365
H 1.6400038751 0.0834791222 1.9318150065
H 0.9280910392 0.9610907101 -2.3371370236
H 0.2734580866 1.7611287746 1.9525632728
H -1.1676680259 -0.4622798584 -1.7463185519
*
