! pbe def2-sv(p) def2/J RI DEFGRID1 loosescf d4 GCP(DFT/SV(P)) printgap
%output
    printlevel normal
end
* xyz 0 1
C -3.6480400514 -0.0348380733 -0.010170795
C -2.1517815902 -0.021316553 0.0075259431
C -1.4254552518 -1.2070725069 0.0046851619
C -0.0440715622 -1.1996250951 0.0015702833
C 0.6530924191 0.0074766323 0.0007866956
C -0.0770260811 1.1979579256 0.0030965887
C -1.4552296787 1.1834797443 0.0065417725
C 2.13319763 0.1012232767 -0.001803537
O 2.6993294452 1.1727593884 -0.0045526448
C 2.9067015355 -1.1963151789 -0.0012375431
H -4.0352395196 -0.9863086865 0.3459754647
H -4.0488974716 0.7658935929 0.6075511005
H -4.0068392315 0.1183101869 -1.0285942443
H -1.9522697768 -2.150978508 0.006131762
H 0.4832794733 -2.1408568188 0.0008603436
H 0.4681171575 2.1301612851 0.0034091701
H -2.0036197248 2.1145790444 0.0094651257
H 2.6606525664 -1.778847986 0.8838586892
H 3.9713898541 -0.9769011175 -0.0024007797
H 2.6591750456 -1.7802670761 -0.8850086868
*
