! r2scan-3c def2/J RI DEFGRID2 scfconv6 printgap
%output
    printlevel normal
end
* xyz 0 1
C -2.2332687215 0.2538568227 0.3600376521
C -0.9786663392 0.2486519437 -0.5115894876
C 0.0013561113 -0.7806343752 -0.0400137413
C 1.2925149603 -0.5891932677 0.1818755965
C 2.0280480866 0.7034155123 -0.007110929
H -2.7165230297 -0.7208094205 0.3411769616
H -2.9431166065 0.9970146635 0.0033718726
H -1.9761697125 0.4884975724 1.390810503
H -1.265079528 0.0187722558 -1.5433092632
H -0.5249956686 1.2395470196 -0.5016620681
H -0.4238051363 -1.7620448593 0.1284705379
H 1.8898929324 -1.418688719 0.5362059746
H 1.7934215815 1.1515826413 -0.9708660065
H 3.1015121675 0.5424722349 0.0451457234
H 1.7541982547 1.416869537 0.770869796
*
