! pbe def2-sv(p) def2/J RI DEFGRID1 loosescf d4 GCP(DFT/SV(P)) printgap
%output
    printlevel normal
end
* xyz 0 1
C 1.5073719108 0.5548555958 0.0239859127
C 0.8188249967 -0.5696988598 -0.0291581209
C -0.6788020924 -0.6667670504 0.0192620489
O -1.3546931148 0.5639952721 0.0283177513
H 2.5824374962 0.5656837966 -0.0191581235
H 1.0249110896 1.5126603096 0.1331139513
H 1.3167091598 -1.525666664 -0.1183100036
H -0.979072062 -1.1764975488 0.9411396031
H -1.0187880496 -1.2878830737 -0.8272515259
H -1.0535734678 1.081497336 -0.7269563717
*
