! pbe def2-sv(p) def2/J RI DEFGRID1 loosescf d4 GCP(DFT/SV(P)) printgap
%output
    printlevel normal
end
* xyz 0 1
C -2.0775983038 -1.2352899376 -0.198376526
C -1.2547556304 -0.3563706645 0.7659608611
H -1.8564232727 -0.1764552064 1.6621439871
C -0.9311690298 1.0091561207 0.1349719505
H -1.2129786974 0.9898731262 -0.9321862563
C 0.5768345703 1.2885009499 0.2305412801
H 0.8489919556 1.393737269 1.2892030779
C 1.3361926912 0.1089942032 -0.3862846711
H 1.0040716899 -0.0490439157 -1.419730105
C 1.0042160395 -1.1619438256 0.4302597588
H 1.8429590236 -1.3781621292 1.1115189014
O -0.096143584 -1.0124789102 1.2790225808
O 0.8377088585 -2.2250914845 -0.4705062892
O 2.7130360902 0.3402704126 -0.4740355311
O 0.903819916 2.5184145029 -0.3640664027
O -1.6641029468 2.0038928337 0.8038062019
O -1.5628915833 -1.2977513262 -1.4992880131
H -3.071999118 -0.7930357793 -0.2877413372
H -2.1731861779 -2.2377514829 0.2413679246
H 0.6996245576 -3.042557329 0.0244818298
H 3.0350051352 0.6962798932 0.3631090154
H 0.9139456005 2.4133470577 -1.3232817535
H -1.253952233 2.8550592552 0.5979366503
H -0.6928995416 -1.7315603955 -1.4607394116
*
