! pbe def2-sv(p) def2/J RI DEFGRID1 loosescf d4 GCP(DFT/SV(P)) printgap
%output
    printlevel normal
end
* xyz 0 1
C -2.2151398844 -1.1985662772 0.0998292504
C -0.8455362558 -0.5821320894 0.4352238161
H -0.8218923206 -0.326072418 1.5054072854
C -0.5871527518 0.6937865365 -0.386820325
H -0.6465062798 0.4466392937 -1.4541127604
C 0.8162406084 1.2767195795 -0.0937702778
H 0.7253016071 2.0729848224 0.6546532832
C 1.7475513296 0.1984329237 0.4964079691
H 2.782068595 0.4621787033 0.2288968643
C 1.4088630946 -1.1520026697 -0.1499237882
H 2.0869938763 -1.9427974117 0.2193271905
O 0.1259971336 -1.5920050796 0.1724958148
O 1.573982926 -0.9956071627 -1.5365027027
O 1.5751843663 0.1698503671 1.8883434915
O 1.3843096973 1.8729533753 -1.2221081298
O -1.6061937096 1.642500926 -0.1758649229
O -3.2845935109 -0.4314095611 0.5682327598
H -2.2831688077 -2.1729868555 0.5884863747
H -2.277901141 -1.3486256053 -0.9882197598
H 1.2486938983 -1.7928019042 -1.9724230694
H 2.1133251032 -0.5344686357 2.267485357
H 1.5665542384 1.1764695941 -1.8679804881
H -1.4974279401 2.028697732 0.702095816
H -3.1950843909 0.4558538923 0.1863369182
*
