! pbe def2-sv(p) def2/J RI DEFGRID1 loosescf d4 GCP(DFT/SV(P)) printgap
%output
    printlevel normal
end
* xyz 0 1
C -2.2983404142 -1.03422495 -0.2162896201
C -0.9038016888 -0.5517322949 0.1977167078
H -0.8212548127 -0.6440989666 1.2931354335
C -0.7043937263 0.9328632226 -0.1811664176
H -1.1903839216 1.143050346 -1.1401708897
C 0.7953482366 1.2475818618 -0.3588302501
H 0.9624845807 2.2793646723 -0.0146089223
C 1.6264794896 0.2890538186 0.5073551994
H 2.700480784 0.488364525 0.3602041469
C 1.3759894325 -1.1652401728 0.0211660917
H 1.6056500337 -1.8610450421 0.8500103579
O 0.0612735457 -1.3665663737 -0.4292826206
O 2.2367605733 -1.4839964693 -1.0151356083
O 1.2629441277 0.5074684217 1.8504326067
O 1.1229468757 1.1107699457 -1.7193809739
O -1.3091935505 1.7762551717 0.7634863067
O -3.3021060822 -0.3873342499 0.5158467762
H -2.3909637322 -2.1024575431 -0.0087432083
H -2.423371314 -0.8770849407 -1.2971170414
H 1.8397361977 -1.1268958203 -1.8237331185
H 1.7851063101 -0.0701005249 2.4189262864
H 2.0299394654 1.4070238765 -1.8595470289
H -0.837842958 1.6723031615 1.6012252169
H -3.1168524929 0.5627258527 0.5187477567
*
