! r2scan-3c def2/J RI DEFGRID2 scfconv6 printgap
%output
    printlevel normal
end
* xyz 0 1
C 1.7156125141 0.4188783239 0.6073557577
C 0.8862775146 0.3823915075 -0.6729293912
C -0.5685459247 -0.0806933282 -0.4754040784
H -1.055501989 -0.0869246242 -1.4578442245
C -1.3549310429 0.8405115322 0.4587148441
O -0.6387555336 -1.4232759183 -0.0460863726
H 1.3127175372 1.1347208771 1.3196426902
H 2.7357424872 0.7149140368 0.3742229071
H 1.7542864407 -0.562621063 1.076867997
H 1.3586566733 -0.3021741058 -1.3805951706
H 0.8704185333 1.3753817739 -1.1253717874
H -0.9517724406 0.8023143132 1.4688051385
H -1.3131259293 1.8655863261 0.1010232615
H -2.3943140693 0.5232338038 0.4952088086
H -0.262056139 -1.4746185259 0.8399300654
*
