! pbe def2-sv(p) def2/J RI DEFGRID1 loosescf d4 GCP(DFT/SV(P)) printgap
%output
    printlevel normal
end
* xyz 0 1
C 3.6884700988 -0.2853734159 0.1422908423
C 2.2058160619 -0.1840169939 0.0037055188
C 1.5651199475 0.9887122515 -0.035725498
C 0.1193957005 1.1310352776 -0.2162950436
O -0.4146941787 2.2203663456 -0.2468489733
C -0.649668112 -0.1682261815 -0.4259669682
H -0.5355566891 -0.3960649567 -1.4961937715
C 0.0100016964 -1.2949875856 0.3675110283
C 1.4526837535 -1.4752726212 -0.092215448
C -2.1513112601 0.0287202157 -0.1521053048
C -2.9874369168 -1.0956421231 -0.757897946
C -2.4505641259 0.1763571403 1.3379096607
H 3.9422502924 -0.7604759778 1.0900878877
H 4.1579883446 0.6936832171 0.1056604978
H 4.0971826333 -0.9065399471 -0.6541251954
H 2.108848214 1.9198698564 0.0484730296
H 0.0063112078 -1.0466859002 1.4302275081
H -0.542331257 -2.2256905373 0.2303928901
H 1.9525742712 -2.2425667435 0.5035693019
H 1.4677579193 -1.8127892017 -1.1350025894
H -2.4290155282 0.9682356997 -0.6424728967
H -4.0459927497 -0.8853631276 -0.6244515983
H -2.7712301376 -2.0470226738 -0.2763302058
H -2.7919679444 -1.1949104602 -1.8236447116
H -1.8258424702 0.951492555 1.7747049021
H -2.2805146454 -0.758124474 1.8681459383
H -3.4909671261 0.4600523411 1.4791434004
*
