! pbe def2-sv(p) def2/J RI DEFGRID1 loosescf d4 GCP(DFT/SV(P)) printgap
%output
    printlevel normal
end
* xyz 0 1
C -2.7884963369 0.236584202 -1.2688568559
C -2.3385205239 0.2187911707 0.191166329
H -3.2367387055 0.3334297259 0.8085040926
C -1.3860081368 1.3681389918 0.5212697497
C -0.1190444671 1.3214887866 -0.3289702533
C 0.4788854828 -0.0957625062 -0.4315324085
H 0.1860551088 -0.5187594913 -1.40226908
C -0.1400342794 -1.0502222957 0.5714295079
O 0.5071484203 -1.7872513529 1.2741428724
C -1.6539221188 -1.0991810407 0.5775011573
C 2.0191511473 -0.1359770843 -0.3804298265
C 2.6186523172 0.5787186679 -1.5896382874
C 2.5953464848 0.4263137639 0.9175111454
H -3.2075982775 1.2083699592 -1.5210432591
H -1.9647266235 0.0317163927 -1.9461598346
H -3.5570089667 -0.5160954043 -1.4326601278
H -1.8865537424 2.3268774105 0.3716389686
H -1.1153890179 1.2936754714 1.5776441255
H -0.3370205527 1.6969726826 -1.3297155831
H 0.6131773974 1.9949621224 0.1142551576
H -1.9433052472 -1.8965978814 -0.1127910826
H -1.9605815334 -1.4215124264 1.5748975976
H 2.3007091884 -1.193944197 -0.428792449
H 2.2430831173 0.1532237141 -2.5182627859
H 3.7015254649 0.4793315308 -1.5838345665
H 2.3755002381 1.6386754724 -1.5739208075
H 3.6694062842 0.2573322864 0.9424800411
H 2.1526729545 -0.0734333762 1.773935539
H 2.4248429466 1.4969552951 1.0054724455
*
