! pbe def2-sv(p) def2/J RI DEFGRID1 loosescf d4 GCP(DFT/SV(P)) printgap
%output
    printlevel normal
end
* xyz 0 1
C -2.325915927 -0.8692708281 -0.5933582317
C -1.0438410097 -0.5739466252 0.198979531
H -1.1552158032 -0.9560290308 1.2289131648
C -0.7505406547 0.9494779812 0.2980996247
H -1.5856573414 1.4961088762 -0.1554233267
C 0.5430168264 1.2670520754 -0.4721118088
H 0.8023651659 2.319555357 -0.3183515342
C 1.6981988662 0.4006087985 0.0786853209
H 2.5322133812 0.4559292886 -0.6364619985
C 1.2462162424 -1.0845601467 0.1964001766
H 1.1580511046 -1.3399961145 1.2676721704
O 0.0073264533 -1.2773286131 -0.4450216306
O 2.1661111325 -1.9654755377 -0.3428211074
O 2.0845747319 0.9165464966 1.3339653489
O 0.3991393986 1.0907861546 -1.8531095556
O -0.6787421157 1.3706860672 1.634726223
O -3.4271607571 -0.1464534798 -0.1246876454
H -2.5113597373 -1.9523947403 -0.5661253518
H -2.1903058598 -0.5685254422 -1.6351594211
H 2.0395346329 -1.9952061027 -1.2989733898
H 2.8771159029 0.4581806204 1.6350530783
H 0.1071814246 0.1815552487 -2.0081986971
H 0.2398084629 1.3000132949 1.93435139
H -3.5224835385 -0.2856900966 0.8247415285
*
