! pbe def2-sv(p) def2/J RI DEFGRID1 loosescf d4 GCP(DFT/SV(P)) printgap
%output
    printlevel normal
end
* xyz 0 1
C -2.024189687 -0.5696920119 -0.6843125055
C -1.2180438582 -0.0860788938 0.5462889963
H -1.8908121852 -0.0501587603 1.4104193228
C -0.6418635527 1.3264942732 0.3281220521
H -1.388521602 1.9436219715 -0.1826170156
C 0.651162621 1.3007183077 -0.5294466872
H 1.0816939442 2.3121120729 -0.4793439059
C 1.6444762995 0.2872043889 0.0655802778
H 2.4799505964 0.15233542 -0.6382124464
C 0.9418725858 -1.0753140041 0.2171304731
H 1.5939615105 -1.7471013204 0.7984782148
O -0.2218219692 -1.0020412699 0.9737287209
O 0.7185294898 -1.5942353406 -1.068015782
O 2.1103833832 0.6649922828 1.3393288476
O 0.4152154293 1.0290865282 -1.8847414006
O -0.3910728244 1.9500256018 1.5594554202
O -2.0090050693 -1.9858475061 -0.729088496
H -1.6012576949 -0.1594713276 -1.6093816362
H -3.048536778 -0.1949976151 -0.5795892323
H -0.0727554234 -2.1592283503 -1.0022183947
H 2.5868956812 1.5001835561 1.2622316906
H 0.5032019639 0.0680429549 -2.0099873506
H 0.2608071513 1.4084038585 2.0322782309
H -2.6766106453 -2.2852207068 -1.3537697787
*
