! r2scan-3c def2/J RI DEFGRID2 scfconv6 printgap
%output
    printlevel normal
end
* xyz 0 1
C 2.8312110386 0.6647345713 0.3673731309
C 1.9797723099 -0.4029155817 -0.3109802027
C 0.4957179205 -0.2228817218 -0.1474279504
C -0.3537183222 -1.3209526475 -0.2553468555
C -1.7201211341 -1.1485827093 -0.1244363296
C -2.1985432477 0.1307902177 0.1148945734
N -1.4085100793 1.1836679275 0.2204083385
C -0.1048461107 1.0093965421 0.0919430122
H 2.7103655127 1.6307247407 -0.1158371391
H 3.8817360611 0.3891409693 0.3090898202
H 2.5583659351 0.7626480795 1.4157122882
H 2.2520771579 -1.3854209105 0.0845373778
H 2.2075710726 -0.4154191586 -1.3823610976
H 0.0583087384 -2.304167843 -0.4403701165
H -2.3965194969 -1.9859348831 -0.2038507436
H -3.257172883 0.3250050615 0.2274161581
H 0.4828217073 1.9117391683 0.1884869194
*
