! pbe def2-sv(p) def2/J RI DEFGRID1 loosescf d4 GCP(DFT/SV(P)) printgap
%output
    printlevel normal
end
* xyz 0 1
C -2.5045145213 -0.7365813882 -0.0078895145
C -1.1103501075 -0.4831381916 0.5866675113
H -1.1054354023 -0.8212041391 1.635221517
C -0.7191383546 1.0131844966 0.590614748
H -1.5933190449 1.6281692486 0.3262371238
C 0.3941616126 1.249100149 -0.4549400545
H 0.7056561509 2.3006923892 -0.4345720341
C 1.6203769988 0.37805076 -0.0889417066
H 2.2934459628 0.3437901074 -0.9529400345
C 1.149720593 -1.0661789972 0.2500185903
H 1.2296306899 -1.21984761 1.3390850272
O -0.1908692674 -1.2486058034 -0.1642177771
O 1.9188498914 -2.0490875062 -0.3343036025
O 2.361928464 0.9485030722 0.9518546429
O -0.0762524014 1.0096851268 -1.7516113995
O -0.2827137452 1.3394144909 1.8948787735
O -2.6176340959 -0.3923195282 -1.358846584
H -3.2436786387 -0.2026482596 0.6069841832
H -2.7094398241 -1.8076000201 0.0371067278
H 1.7209567035 -2.0826831815 -1.2783752531
H 1.8036442844 0.9705925988 1.7433264172
H -0.3224405507 0.0720178707 -1.8165399206
H -0.1448291619 2.2924374291 1.9540057584
H -2.3671815595 0.5316275215 -1.4932114177
*
