! pbe def2-sv(p) def2/J RI DEFGRID1 loosescf d4 GCP(DFT/SV(P)) printgap
%output
    printlevel normal
end
* xyz 0 1
C -1.9181900093 -0.5778701925 -0.7670198231
C -1.2247026392 -0.07866427 0.5181164334
H -1.9506452238 -0.0545674143 1.3415459882
C -0.6484293613 1.3407900376 0.3549985629
H -1.4067878692 1.9611665964 -0.1401315373
C 0.6406409557 1.3331684891 -0.4942102436
H 1.1468477919 2.2967622441 -0.3210385071
C 1.608855431 0.2476066271 0.0016708824
H 2.3751793366 0.0999954503 -0.7708612754
C 0.9204310655 -1.114722032 0.2310837927
H 1.5798645231 -1.720695611 0.8864540065
O -0.2515315127 -1.0034696931 0.9836712078
O 0.7590570461 -1.7693660526 -0.98389595
O 2.1648941498 0.7323732375 1.2060806298
O 0.4001492597 1.1375569352 -1.8636262781
O -0.411211709 1.9388173575 1.5996174978
O -2.0752990545 -1.9787067625 -0.7544129306
H -1.3071930602 -0.3547606089 -1.6437410653
H -2.8900115774 -0.0750881248 -0.8640918611
H -0.1158543759 -2.1928091584 -0.998081373
H 2.7987877669 0.0891829913 1.5427324867
H -0.0478053601 1.9136488356 -2.2176788489
H 0.3870124043 1.5360512077 1.9736653876
H -2.4674092413 -2.2410268355 0.0873049227
*
