! pbe def2-sv(p) def2/J RI DEFGRID1 loosescf d4 GCP(DFT/SV(P)) printgap
%output
    printlevel normal
end
* xyz 0 1
C -2.4804629784 -0.4784751199 -0.2250000421
C -1.0602640924 -0.1773006637 0.2613498747
H -0.9982815117 -0.3945665653 1.3387128689
C -0.6440183187 1.2941174027 0.0231005229
H -1.2898253076 1.7536920198 -0.7336072259
C 0.8087809092 1.3172964892 -0.5082075303
H 1.2048994691 2.3343960459 -0.4090897211
C 1.6565860903 0.3341749134 0.3297559869
H 2.6948005527 0.3421666718 -0.0286665668
C 1.1066310999 -1.1019992119 0.1272144918
H 1.0818141853 -1.6036924769 1.1069178732
O -0.1915728053 -1.0656024795 -0.4325767394
O 1.9069786165 -1.8674982961 -0.6909341588
O 1.596738003 0.6454744973 1.7061096579
O 0.8790004727 0.9961826877 -1.8723311087
O -0.794719248 2.0709945769 1.1758194434
O -2.8729602359 -1.7818641295 0.0971395244
H -2.5240334834 -0.3140970206 -1.3120611987
H -3.1817723662 0.1964231025 0.2685462628
H 1.9226829628 -1.479360879 -1.5764157445
H 2.1544857152 1.4121357719 1.8805577592
H 0.3442896313 0.2001219638 -2.0109454556
H -0.2299055119 1.6903049398 1.8656873955
H -2.186610501 -2.3818164264 -0.2212524373
*
