! pbe def2-sv(p) def2/J RI DEFGRID1 loosescf d4 GCP(DFT/SV(P)) printgap
%output
    printlevel normal
end
* xyz 0 1
C -2.21204741 -1.2078649401 0.076015733
C -0.8469550169 -0.5815064823 0.4015958334
H -0.800099855 -0.344810689 1.4768765885
C -0.6261385998 0.7219907122 -0.3858148355
H -0.7342026846 0.5038575074 -1.4623233798
C 0.792994697 1.291351766 -0.1512636737
H 0.6850611223 2.1563302554 0.5137347732
C 1.716218514 0.2415653186 0.5047108938
H 2.7539483882 0.5045316888 0.2472892837
C 1.4276806448 -1.1316638943 -0.1108484707
H 2.0799648937 -1.8912460685 0.3497119673
O 0.1203867044 -1.5761562444 0.1004321383
O 1.6991965863 -1.0279012304 -1.486275381
O 1.5578698865 0.1342866986 1.895741018
O 1.3733811573 1.7816502191 -1.3249813755
O -1.5478803868 1.7014674597 0.0143177084
O -3.2931085936 -0.4209627605 0.5147553582
H -2.2412763622 -2.2121994509 0.5148415598
H -2.3266942752 -1.3008675445 -1.0067325979
H 1.4248953883 -1.8509798666 -1.9081645523
H 1.7356852107 0.9953774526 2.2918744927
H 1.568575163 1.0253306249 -1.8967185951
H -2.4391594013 1.3224161371 -0.0431218655
H -3.2756855716 -0.3730969299 1.4779191642
*
