  15
        -30.41476300
 C         -1.0935118621       -1.8636271303        0.0002989422
 C          0.2391110210       -1.4887476557        0.0000101122
 C          0.5490594571       -0.1361100983       -0.0002249364
 C         -0.4401615984        0.8386420875       -0.0002929937
 C         -1.7731398108        0.4510019816       -0.0000817614
 C         -2.0925025534       -0.9088718823        0.0002736320
 O         -2.7851961798        1.3445836606       -0.0001979578
 N          1.9300776108        0.2782062712       -0.0000617266
 O          2.1598142735        1.4694777099        0.0007056072
 O          2.7785014840       -0.5868586118       -0.0004660248
 H         -1.3558359950       -2.9097981633        0.0005245559
 H          1.0350891107       -2.2160009347        0.0000251291
 H         -0.1543732749        1.8811058446       -0.0005034013
 H         -3.1336051893       -1.1889720806        0.0005288500
 H         -2.4416493741        2.2470174655       -0.0001754267
  15
        -30.41354391
 C         -1.0765530412       -1.8706175168        0.0000050328
 C          0.2500681684       -1.4842425481       -0.0000013842
 C          0.5480503060       -0.1266614008       -0.0000095692
 C         -0.4452489226        0.8391426777       -0.0000003102
 C         -1.7776638409        0.4389884689        0.0000058165
 C         -2.0842845509       -0.9208472027        0.0000093099
 O         -2.7295442872        1.3970483350        0.0000106108
 N          1.9295829652        0.2929982589       -0.0000427157
 O          2.1580288286        1.4825863516       -0.0000206584
 O          2.7785426720       -0.5723478662        0.0000388476
 H         -1.3320536095       -2.9186542429        0.0000103297
 H          1.0521071698       -2.2046832869       -0.0000114459
 H         -0.1929094684        1.8873876731       -0.0000070543
 H         -3.1198089774       -1.2333267363        0.0000225374
 H         -3.6106056694        1.0027356722        0.0000160703
