! r2scan-3c def2/J RI DEFGRID2 scfconv6 printgap
%output
    printlevel normal
end
* xyz 0 1
C -1.9557499064 0.1065364877 -0.0274902035
C -0.5746274762 -0.5309118409 0.025626999
C 0.5336752298 0.5152070434 -0.0255725147
O 1.7786806518 -0.1490115598 0.0285960247
H -2.7261933059 -0.6591041616 0.00994016
H -2.0994704998 0.7805888354 0.8142658137
H -2.0804231084 0.6753529389 -0.9464563996
H -0.441162223 -1.214205023 -0.8142002521
H -0.4598393559 -1.1081632614 0.944107374
H 0.4500343969 1.0990995918 -0.9544777895
H 0.4303895531 1.2071407578 0.8237765768
H 2.4863096835 0.5022708941 -0.0039411112
*
