! pbe def2-sv(p) def2/J RI DEFGRID1 loosescf d4 GCP(DFT/SV(P)) printgap
%output
    printlevel normal
end
* xyz 0 1
C -2.2821947627 -0.8885819684 0.7752859641
C -0.8346684112 -0.3832519128 0.7557574762
H -0.544912275 -0.0855718572 1.77143832
C -0.645767496 0.8183218167 -0.1868718805
H -0.8489681231 0.4872689065 -1.2177184957
C 0.8133285329 1.3147401697 -0.1130846884
H 0.8504826063 2.1334466998 0.6111053319
C 1.7554191306 0.190764752 0.3695144215
H 2.742783128 0.3721756147 -0.0812643411
C 1.2402134319 -1.1577312696 -0.1577286993
H 1.9020200289 -1.9803970299 0.1707471419
O -0.0284872109 -1.484787297 0.327594577
O 1.2487512842 -1.0751250794 -1.5601164214
O 1.829215688 0.2084813022 1.7698733549
O 1.2533509853 1.8376539514 -1.3316591929
O -1.4888804353 1.884025504 0.1613416086
O -2.7783037827 -1.1421659713 -0.5138353775
H -2.9301475894 -0.1314191525 1.2198669569
H -2.3199569703 -1.7947258193 1.393564831
H 0.881846755 -1.8903836791 -1.9225344674
H 2.4615250267 -0.4548249091 2.0694680311
H 1.2773490326 1.1162290582 -1.9754609231
H -2.3881621082 1.6684490919 -0.1107186578
H -2.2018253908 -1.8007565366 -0.9186788451
*
