! r2scan-3c def2/J RI DEFGRID2 scfconv6 printgap
%output
    printlevel normal
end
* xyz 0 1
C 2.873598878 -0.744214901 -0.1106410839
C 1.9947167367 0.4814351743 0.1001874596
C 0.5125471503 0.2307627131 0.0447614607
C -0.362873052 1.2977810907 0.2414884763
C -1.726567199 1.0743175289 0.1911302764
N -2.262571547 -0.1140210033 -0.0369039078
C -1.437224648 -1.1275125115 -0.2240875496
C -0.055020634 -1.0143001868 -0.1944777115
H 2.6800577591 -1.4961175358 0.6511764773
H 3.9214929797 -0.459280399 -0.0473111317
H 2.7002346792 -1.182234187 -1.0910596475
H 2.2381618342 1.2335016038 -0.6569380234
H 2.2254424203 0.9267195742 1.0730304347
H 0.0219052772 2.289099712 0.4318236043
H -2.4303563043 1.8830891857 0.3405368743
H -1.9088897955 -2.0845174296 -0.4081154776
H 0.5541767203 -1.8884625915 -0.3566076856
*
