! pbe def2-sv(p) def2/J RI DEFGRID1 loosescf d4 GCP(DFT/SV(P)) printgap
%output
    printlevel normal
end
* xyz 0 1
C -2.0019088415 -0.575509213 -0.7121927363
C -1.2161997538 -0.0954484522 0.5327695831
H -1.9113785026 -0.07373547 1.3829520434
C -0.6425692778 1.3166584659 0.313120319
H -1.3847618984 1.9160512661 -0.2367040395
C 0.6669588147 1.2988267262 -0.517090695
H 1.0995190603 2.3049514577 -0.4433894564
C 1.6542987546 0.2856173699 0.0843654973
H 2.4984641672 0.1555610421 -0.6023852807
C 0.9454657512 -1.0810098623 0.220995035
H 1.5868649848 -1.7600618722 0.8056916854
O -0.2290313984 -1.0055861789 0.9755638697
O 0.7190376218 -1.5968209017 -1.0647877116
O 2.1865927689 0.707318701 1.3039450246
O 0.42399821 1.041776295 -1.8734319178
O -0.3262242111 1.9303071643 1.5450605096
O -2.0495452058 -1.9886396458 -0.7126216619
H -1.5281249274 -0.2086955958 -1.630011896
H -3.0124548868 -0.1516405341 -0.6530561431
H -0.021970263 -2.2213819041 -0.989303408
H 1.4595469589 1.0542991928 1.8432334741
H 0.5615816675 0.0903748547 -2.0186818131
H -1.1095193721 1.9503579601 2.1064233915
H -2.6656085807 -2.2787164016 -1.3926197711
*
