  17
        -22.48702810
 C          2.7215902183        0.1217147173       -0.7127973607
 C          1.9332985798       -0.1243407862        0.5749267295
 C          0.4584064662       -0.0400128062        0.3099899225
 C         -0.1904226256        1.1893653383        0.2163713378
 C         -1.5444620012        1.2118574574       -0.0649958962
 C         -2.2095197020        0.0082652005       -0.2445667913
 C         -1.4761564497       -1.1615366880       -0.1300715655
 N         -0.1828246510       -1.1880145752        0.1384285035
 H          2.4533004722       -0.6198235572       -1.4612980006
 H          3.7897129910        0.0523832584       -0.5212348580
 H          2.5040101289        1.1098359316       -1.1131192657
 H          2.2173316541        0.6171211200        1.3246385685
 H          2.1610341248       -1.1202790906        0.9550180261
 H          0.3601190845        2.1063187843        0.3660265116
 H         -2.0745757154        2.1508311469       -0.1419311475
 H         -3.2654248236       -0.0200742231       -0.4646707988
 H         -1.9431702534       -2.1301122421       -0.2576868510
  17
        -22.48612680
 C          2.7387870162       -0.6694098221       -0.4461016190
 C          1.9506854162        0.3424108404        0.3770051252
 C          0.4654533404        0.2134411189        0.1804829835
 C         -0.3756479192        1.3141003052        0.3391573290
 C         -1.7382559411        1.1480756500        0.1703491263
 C         -2.2234146561       -0.1099135309       -0.1539394341
 C         -1.3078126720       -1.1404343277       -0.2895797589
 N         -0.0063148464       -0.9869551806       -0.1269963918
 H          2.5630310498       -0.5106635016       -1.5072039171
 H          2.4200959296       -1.6765193586       -0.1957356071
 H          3.8037485560       -0.5709420765       -0.2487919335
 H          2.2591322650        1.3600894928        0.1264364720
 H          2.1647032620        0.1872167679        1.4394872429
 H          0.0365129544        2.2804942569        0.5897988840
 H         -2.4120238332        1.9853474180        0.2869306336
 H         -3.2785230446       -0.2834411473       -0.2976387109
 H         -1.6272125031       -2.1438793511       -0.5421626898
  17
        -22.48546051
 C          2.8468337036        0.7111515751       -0.0487449168
 C          1.9328003202       -0.5021357956        0.0470775907
 C          0.4574018215       -0.2103281659        0.0172165670
 C         -0.0790872039        1.0624461133       -0.1515871014
 C         -1.4562541502        1.2128825924       -0.1655787076
 C         -2.2583204446        0.0945584714       -0.0121283138
 C         -1.6297185174       -1.1306881039        0.1495123946
 N         -0.3197035760       -1.2797802938        0.1644031580
 H          2.7010352686        1.2368607125       -0.9899058618
 H          3.8852869986        0.3917162421        0.0015464329
 H          2.6648614141        1.4014033866        0.7722526198
 H          2.1386276381       -1.0489114059        0.9708428195
 H          2.1472561889       -1.1911292096       -0.7744545127
 H          0.5584730525        1.9233697165       -0.2700830885
 H         -1.8958290018        2.1921400050       -0.2948226930
 H         -3.3345583382        0.1695951910       -0.0172891224
 H         -2.2016196199       -2.0417658914        0.2743518338
  17
        -22.48300096
 C          2.7580835027        0.3561655074        0.6446652410
 C          1.9333812853       -0.2693569992       -0.4953308515
 C          0.4570756851       -0.1204462010       -0.2643726547
 C         -0.1495742433        1.1346223350       -0.2580139849
 C         -1.5093250662        1.2189113810       -0.0218832616
 C         -2.2230162820        0.0503003236        0.2005242102
 C         -1.5300394949       -1.1484560208        0.1704506742
 N         -0.2305272102       -1.2341370007       -0.0551293576
 H          2.1056148818        0.7907197560        1.3987691128
 H          3.4128390150        1.1407420206        0.2743825978
 H          3.3735745965       -0.3944428486        1.1319792224
 H          2.1498150530       -1.3332951212       -0.5832146668
 H          2.1890830961        0.2083554718       -1.4433055016
 H          0.4394310409        2.0217204156       -0.4373386163
 H         -2.0072485742        2.1784444795       -0.0125886393
 H         -3.2851665460        0.0712367488        0.3890522127
 H         -2.0352514286       -2.0920892451        0.3339276064
