! pbe def2-sv(p) def2/J RI DEFGRID1 loosescf d4 GCP(DFT/SV(P)) printgap
%output
    printlevel normal
end
* xyz 0 1
C -2.3395027702 -1.0160167361 0.4085079877
C -1.8082412953 0.3962472585 0.1888536773
C -0.5658872633 0.4967854921 -0.7032461471
C 0.8118169578 0.130832566 -0.113653448
C 1.8691545622 0.5845678522 -1.1295605543
C 1.0619329667 0.858949077 1.2085465422
C 0.9732727549 -1.3763140753 0.0963471798
H -3.3270975619 -0.9733419532 0.86437645
H -2.4244661826 -1.5439259455 -0.5387665264
H -1.6959164238 -1.5924390452 1.065494413
H -2.5968240603 0.9746742181 -0.3011510751
H -1.6186141435 0.8702367076 1.1522569071
H -0.4996314416 1.5364526984 -1.0364712451
H -0.7308134508 -0.1145650691 -1.5942701309
H 2.8680551113 0.3290837265 -0.7823833378
H 1.708353074 0.100972234 -2.0908173168
H 1.826435966 1.6616766421 -1.2772592227
H 2.0904404035 0.7066696419 1.5290435066
H 0.4090292337 0.4850418647 1.9929480222
H 0.8934872446 1.9277991134 1.0959245087
H 0.362926446 -1.7298125335 0.9211102445
H 0.6934603442 -1.9229261723 -0.8012064732
H 2.0108361616 -1.6099733262 0.3279530994
*
