! pbe def2-sv(p) def2/J RI DEFGRID1 loosescf d4 GCP(DFT/SV(P)) printgap
%output
    printlevel normal
end
* xyz 0 1
C -2.3280251349 -0.9344673881 -0.4164670065
C -0.9605071706 -0.5051572961 0.1265344639
H -0.9346735373 -0.7402494703 1.2026863343
C -0.7231478038 1.0164744941 -0.0338841816
H -1.3709104866 1.4198144722 -0.8294566615
C 0.7407376527 1.2541360717 -0.470129758
H 1.0090001562 2.3053648619 -0.3082693037
C 1.669250588 0.3588782248 0.3753565303
H 2.7098567687 0.5091125195 0.0657785691
C 1.3082713539 -1.133015569 0.1037077935
H 1.2766273917 -1.6722485918 1.0630079467
O 0.0434143847 -1.2318068319 -0.5460010946
O 2.2394464981 -1.7801522481 -0.6756214722
O 1.6199204819 0.6921312623 1.7341757075
O 0.8934540271 1.0182575041 -1.8441283195
O -1.0304416573 1.6244211644 1.2042887882
O -3.3754611264 -0.4810921182 0.3937955024
H -2.3825927477 -2.0248907813 -0.4216323993
H -2.4390481046 -0.57533548 -1.4509155419
H 2.2907644611 -1.3539715565 -1.5413736686
H 0.697064374 0.8163280654 2.0031611001
H 0.5479159583 0.130670117 -2.0265699327
H -0.8778054581 2.5751494643 1.1453067752
H -3.2256865513 0.4447216556 0.6201179583
*
