! r2scan-3c def2/J RI DEFGRID2 scfconv6 printgap
%output
    printlevel normal
end
* xyz 0 1
C -1.1897664601 0.9025479327 1.0331490225
C -0.5109352412 0.2192914243 0.0344331838
C -1.2252567328 -0.5763889205 -0.8602235053
C -2.6118640131 -0.6763332389 -0.760110913
C -3.2894186073 0.0196552061 0.2408845334
C -2.5677804102 0.806975073 1.1382307342
Cl -3.3900085584 1.6617265321 2.3768864052
Cl -4.9933235 -0.0997334361 0.363960395
Cl -3.4853461255 -1.6543618429 -1.8619225219
Cl -0.3931249808 -1.4595183939 -2.0738405316
C 0.9596357265 0.330997749 -0.0822122593
C 1.5458672782 1.0297277235 -1.1373110526
C 2.9224015543 1.126400657 -1.2586399768
C 3.7364147063 0.5184665582 -0.3155914393
C 3.1796444957 -0.1830282177 0.7544125883
C 1.7922187177 -0.2685873374 0.8608353819
Cl 1.09225974 -1.1441977314 2.1605254052
Cl 4.1847367139 -0.9330851431 1.922370751
Cl 5.439192433 0.6331144622 -0.4657339479
Cl 0.5396558307 1.804498352 -2.2929702298
H -0.6415649581 1.5169367538 1.7290707001
H 3.3602472555 1.6697237964 -2.0799133179
*
