! pbe def2-sv(p) def2/J RI DEFGRID1 loosescf d4 GCP(DFT/SV(P)) printgap
%output
    printlevel normal
end
* xyz 0 1
C -4.4432730957 -1.2135517538 -0.367845938
N -3.3445996924 -0.7413021221 0.4353895305
C -2.2336556131 -0.198901453 -0.1073325402
O -2.006976316 -0.0883039161 -1.2830121227
O -1.3941438243 0.2033690741 0.8880821392
C -0.1838697342 0.7716568305 0.4851442119
C -0.0914286595 2.1303413514 0.3542290235
C 1.12745093 2.7189599482 -0.0115175938
C 2.2260832863 1.9430537506 -0.2489739613
C 2.1573465858 0.5394199573 -0.1288214713
C 0.9304011491 -0.0687439319 0.2465790019
C 0.8653304684 -1.4718400609 0.3656096738
C 1.9666540115 -2.2420805748 0.1176069405
C 3.1804480028 -1.6453356378 -0.2554309825
C 3.2736436212 -0.2870771315 -0.3743353847
H -4.6467871592 -2.2659039069 -0.1614803702
H -4.1544480716 -1.0994230292 -1.4112096897
H -5.3462325986 -0.6294208648 -0.1774170046
H -3.4270482009 -0.7505570529 1.4389107705
H -0.9621529402 2.743376776 0.5308967203
H 1.1817117815 3.7927332355 -0.1102149016
H 3.1649379834 2.3929886952 -0.5377786104
H -0.0698956809 -1.9281317102 0.6551931349
H 1.909738605 -3.3169363068 0.207721807
H 4.0405278445 -2.2699900298 -0.4478369781
H 4.2066503343 0.1768565146 -0.6609425682
*
