! pbe def2-sv(p) def2/J RI DEFGRID1 loosescf d4 GCP(DFT/SV(P)) printgap
%output
    printlevel normal
end
* xyz 0 1
C -2.0858614988 -1.2163399418 -0.2300443301
C -1.2699473379 -0.353321664 0.7520580375
H -1.8780975574 -0.187221524 1.6467408606
C -0.9425035374 1.0270702386 0.149752652
H -1.2281190069 1.0314092793 -0.9171366068
C 0.5671661624 1.2984596163 0.240478272
H 0.8512851799 1.3883993445 1.2968258352
C 1.2972088941 0.1156833028 -0.397084353
H 0.9123470432 -0.0385932486 -1.4152270749
C 0.9932002163 -1.1499326288 0.4473247144
H 1.8306161253 -1.3210486613 1.1435481847
O -0.1161438931 -1.0160251047 1.2639445435
O 0.854122078 -2.2831049936 -0.3901003107
O 2.6804968178 0.3191739921 -0.5349071405
O 0.9066865668 2.5315090515 -0.3421519789
O -1.6707483237 2.0085971406 0.8419780803
O -1.4925325796 -1.3408645386 -1.4934640641
H -3.050798339 -0.72899282 -0.3862057102
H -2.2471537754 -2.1995123254 0.2283001856
H 1.6914880046 -2.4354154021 -0.8418982396
H 2.9947172888 0.8756259834 0.1874477907
H 0.8034753073 2.4678806998 -1.2999829225
H -1.261824569 2.865055211 0.6574492899
H -0.6925663265 -1.8810968767 -1.3769388269
*
