! pbe def2-sv(p) def2/J RI DEFGRID1 loosescf d4 GCP(DFT/SV(P)) printgap
%output
    printlevel normal
end
* xyz 0 1
C -1.8910390206 -0.9379929803 -0.7941013929
C -1.3225484531 -0.1228661057 0.3870451411
H -2.1113104132 0.0451262057 1.1292391341
C -0.8133286879 1.2613847156 -0.0610174587
H -0.9786142707 1.3912543289 -1.1437352071
C 0.6964019485 1.3631578363 0.185207319
H 0.8840179263 1.4267388534 1.2690116521
C 1.3631932641 0.0946016988 -0.3497646918
H 1.0772475984 -0.0507675802 -1.404240323
C 0.8702306306 -1.1128042187 0.4810291278
H 1.584210685 -1.2748067307 1.3052239829
O -0.3512483628 -0.8599457906 1.1126973414
O 0.8535794677 -2.2717972093 -0.3003146996
O 2.757543385 0.262743167 -0.2542358902
O 1.1699249466 2.5174533737 -0.4594289856
O -1.5210231231 2.2456654201 0.6435083805
O -1.9650918022 -2.3113937984 -0.491453498
H -1.2393875785 -0.8663440755 -1.668357632
H -2.8772691904 -0.5375328261 -1.0593687584
H -0.0718371961 -2.5490451068 -0.4262330739
H 3.1803159 -0.5661370466 -0.5048578409
H 2.1305554583 2.4345836683 -0.5135799792
H -1.0818455073 3.090111177 0.4807456198
H -2.4022587808 -2.4197803393 0.362007348
*
