! pbe def2-sv(p) def2/J RI DEFGRID1 loosescf d4 GCP(DFT/SV(P)) printgap
%output
    printlevel normal
end
* xyz 0 1
C 2.8103945417 2.2171774991 1.221351753
C 2.0966025391 1.7240355468 -0.0365248932
C 2.8207717042 0.502682022 -0.6590351813
C 1.8549755037 -0.6164782898 -0.4125871944
C 1.9387382419 -1.9637962066 -0.6829502786
C 0.8658505832 -2.7787060509 -0.3437798505
C -0.26233544 -2.2469277741 0.2543862093
C -0.356877499 -0.8845526678 0.5312391614
C 0.7171812409 -0.0709311462 0.1834355608
O 0.784009395 1.2623601676 0.3584287167
O -1.4549871311 -0.3645633226 1.1952297743
C -2.638920138 -0.1645572395 0.56206434
O -3.6052840696 0.1729078899 1.1905185367
N -2.6324742732 -0.3743332444 -0.7768689573
C -3.8116369612 -0.1798821518 -1.5826049317
C 1.9077284891 2.8597518606 -1.0383912265
H 2.226622633 3.0049687738 1.6899727732
H 2.917682746 1.4001583802 1.9315303373
H 3.7941419089 2.6042842666 0.9692127448
H 2.998555328 0.6441854359 -1.7274268421
H 3.7827129045 0.3220954567 -0.1780449595
H 2.8211720768 -2.3775541896 -1.1459074905
H 0.9120392097 -3.837831266 -0.542648155
H -1.090877669 -2.8825349187 0.5277742363
H -1.7678792838 -0.60436844 -1.2415310252
H -4.62783509 0.0730213994 -0.9083283076
H -4.0579293186 -1.094476174 -2.1254253055
H -3.6674311409 0.6342933175 -2.2959044666
H 1.3713203782 2.5028930758 -1.9149434208
H 2.8737219443 3.250692466 -1.3464016025
H 1.3293020232 3.65889186 -0.5827111039
*
