! pbe def2-sv(p) def2/J RI DEFGRID1 loosescf d4 GCP(DFT/SV(P)) printgap
%output
    printlevel normal
end
* xyz 0 1
C -2.4643047472 0.635654162 -1.0323829801
C -1.6924328287 -0.0223158979 0.0862466233
O -2.2568910937 -0.6061162678 0.9837157577
C -0.2069732865 0.0194113227 0.014121025
C 0.50433323 1.1028191328 -0.4951895537
C 1.887148668 1.0796102979 -0.5136461187
C 2.5747862729 -0.02460483 -0.0373983815
C 1.8758304782 -1.1026430939 0.481378624
C 0.4953253269 -1.0752988302 0.5177449437
H -1.8554099206 1.2939184455 -1.640934824
H -3.3135316223 1.1763772494 -0.6206197628
H -2.8592831664 -0.1575169658 -1.666784892
H -0.0131625458 1.9831222082 -0.8462975469
H 2.4317677077 1.9281247042 -0.901233486
H 3.654363111 -0.0405066335 -0.0631777005
H 2.4088560645 -1.9608990951 0.8626922242
H -0.0650341401 -1.9017840176 0.9289587329
*
