! pbe def2-sv(p) def2/J RI DEFGRID1 loosescf d4 GCP(DFT/SV(P)) printgap
%output
    printlevel normal
end
* xyz 0 1
C -1.826753879 -1.0918624921 -0.6115387548
C -1.0201431696 -0.4885979845 0.5557039835
H -1.6378127566 -0.5523249783 1.4626199517
C -0.7042267509 1.005022398 0.3357005056
H -1.5457771047 1.439098237 -0.2163009273
C 0.5894782645 1.242619039 -0.4779426579
H 0.8657873849 2.2940561805 -0.3288531075
C 1.72175411 0.3622296661 0.077263243
H 2.5846575569 0.4268733102 -0.6025625594
C 1.2653900535 -1.1084927893 0.1243239128
H 2.0258747529 -1.7075820246 0.6586318483
O 0.1129093198 -1.2940444966 0.8815685145
O 1.1365345334 -1.5629608484 -1.1977495777
O 2.0492684942 0.8225310816 1.3661662809
O 0.4332776654 1.066739024 -1.8557365491
O -0.6421658321 1.6878940356 1.5608654674
O -3.0963193024 -0.5117224595 -0.7281997711
H -1.9014504954 -2.1791853408 -0.4501005088
H -1.3368816841 -0.9078396853 -1.5692612609
H 0.8241245094 -2.4758200114 -1.1886506281
H 2.7435201906 0.2704246563 1.7435749384
H 0.5267583339 0.1258859826 -2.0616342898
H 0.2119774472 1.4864878016 1.9702510741
H -3.5615381052 -0.5863807727 0.1132160301
*
