! r2scan-3c def2/J RI DEFGRID2 scfconv6 printgap
%output
    printlevel normal
end
* xyz 0 1
C -4.3829747188 -0.0007585739 -0.0011586738
C -3.6894833458 -0.1738437036 -1.1869370011
C -2.3061000294 -0.1733089983 -1.1889193885
C -1.6097726797 0.0004602655 0.000201567
C -2.3073646893 0.1737420168 1.1886219308
C -3.690766819 0.1730597413 1.185254287
C -0.1286030874 0.0004768779 0.0006062965
C 0.5930927827 -1.1753354907 0.1924643668
C 1.9784975968 -1.1919150619 0.1944193088
C 2.6592030079 -0.0003501861 -0.0002184435
C 1.9790734386 1.1916419187 -0.1942250501
C 0.5936455514 1.1759023449 -0.1914322974
Cl -0.2665024262 2.6503327149 -0.4309173353
Cl 4.3805497489 -0.000903751 -0.0009563417
Cl -0.2677949528 -2.6492677236 0.4324254316
H -5.4628429067 -0.0016187941 -0.0016252354
H -4.226458059 -0.3102144644 -2.1138981607
H -1.7592676069 -0.3081000137 -2.1107423424
H -1.7615999033 0.3090078872 2.1110060243
H -4.2287871383 0.3085771453 2.1117371957
H 2.5134140696 -2.1152408422 0.3444922814
H 2.5144667545 2.1146446023 -0.3446106329
*
