! r2scan-3c def2/J RI DEFGRID2 scfconv6 printgap
%output
    printlevel normal
end
* xyz 0 1
C -2.5476235425 -0.9206189596 0.2871825928
C -1.1259767861 -0.4497447215 0.6360375368
H -1.0055518585 -0.4037654528 1.7329955341
C -0.8461028703 0.9416649166 0.0435345809
H -1.1024549337 0.9333954119 -1.0217404721
C 0.6380320165 1.2885438054 0.2142371292
H 0.8528516628 1.4065566595 1.2935219987
C 1.5295148379 0.1662785081 -0.328251827
H 1.3565852616 0.0796581352 -1.415672895
C 1.1291531069 -1.1639515091 0.3380357528
H 1.3214953618 -1.1019219384 1.4201212784
O -0.2452195363 -1.4102778453 0.094197201
O 1.8424074171 -2.2433557056 -0.1148585187
O 2.8785446827 0.4205771656 -0.0616399729
O 0.9663258856 2.480376109 -0.4603793661
O -1.6497309308 1.9449328264 0.6136801934
O -2.6792593291 -1.1657107778 -1.0824987747
H -3.2635481008 -0.1354845125 0.5384418629
H -2.7728390054 -1.8238229837 0.8704619834
H 1.7650873898 -2.3011795198 -1.0755686366
H 3.0576691374 1.3304417705 -0.3328115674
H 0.2107577581 3.0777297709 -0.3856648909
H -1.5424314542 1.9342517205 1.5730609263
H -1.9721060895 -1.7747069634 -1.3309151483
*
