  22
        -55.05793407
 C          1.7259144651       -1.0313298276        1.1515009974
 C          3.1005767443       -1.1370083357        1.2379777405
 C          3.9157169372       -0.3160616495        0.4722799251
 C          3.3396891390        0.6251523029       -0.3781993282
 C          1.9616121396        0.7347139061       -0.4575150180
 C          1.1429221339       -0.0975666195        0.2990884721
 C         -0.3213063883        0.0443198580        0.2024393072
 C         -0.8983288091        1.2995013294        0.3647195284
 C         -2.2696723507        1.4717491163        0.2889888212
 C         -3.1019608969        0.3812767871        0.0397847549
 C         -2.5353247926       -0.8800629573       -0.1400586511
 C         -1.1535074925       -1.0465564397       -0.0584959411
 Cl        -0.4909801667       -2.6071768192       -0.3430907968
 Cl        -3.5472496240       -2.2247269810       -0.4671203531
 Cl        -4.8011030764        0.5826464071       -0.0525980026
 Cl        -2.9490291220        3.0331889340        0.5043680003
 Cl         4.3318625653        1.6580637527       -1.3338421162
 Cl         5.6261648188       -0.4607678942        0.5800159220
 H          1.1034063826       -1.6643137815        1.7631461724
 H          3.5527842071       -1.8577095267        1.9004651724
 H          1.5260720859        1.4588130060       -1.1277916621
 H         -0.2680716176        2.1500105433        0.5694877072
  22
        -55.05789659
 C          1.7402443948        0.2750407332        1.6972662406
 C          3.1151021325        0.2164967525        1.8183564486
 C          3.9086219710        0.0602387678        0.6912564167
 C          3.3107719316       -0.0344092609       -0.5638066934
 C          1.9318859095        0.0164688021       -0.6817648853
 C          1.1347349725        0.1662762354        0.4479465151
 C         -0.3334914060        0.2322618726        0.3326579545
 C         -1.0171781340        1.2920482820        0.9192402918
 C         -2.3949550930        1.3910184087        0.8306778665
 C         -3.1271413164        0.4177646714        0.1522247304
 C         -2.4553591887       -0.6579299014       -0.4275115322
 C         -1.0669320318       -0.7490758677       -0.3382188951
 Cl        -0.2827675880       -2.1197930100       -1.0177582006
 Cl        -3.3473852119       -1.8716865461       -1.2463136705
 Cl        -4.8327921332        0.5319523354        0.0345926682
 Cl        -3.2057545172        2.7177212009        1.5581781438
 Cl         4.2778849150       -0.2127213650       -1.9762672643
 Cl         5.6198049655       -0.0116838173        0.8486901536
 H          1.1282495711        0.3853110614        2.5787977026
 H          3.5839325968        0.2900885869        2.7866670367
 H          1.4853764745       -0.0432658212       -1.6611389060
 H         -0.4631174952        2.0584144512        1.4371293593
  22
        -55.05622038
 C          1.7087492528       -0.4539081057        1.5808342770
 C          3.0819260717       -0.5797101616        1.6770250404
 C          3.8934859096       -0.1892636387        0.6222321531
 C          3.3192614417        0.3317655418       -0.5350771889
 C          1.9423047608        0.4574514975       -0.6286386770
 C          1.1319178715        0.0652458400        0.4279267072
 C         -0.3408444057        0.1879309968        0.3151956529
 C         -0.9880671389        1.3521703474        0.7016646860
 C         -2.3660380566        1.4607181977        0.5983390637
 C         -3.1210293514        0.3986116234        0.1023163959
 C         -2.4777039566       -0.7753385908       -0.2897852664
 C         -1.0920238815       -0.8757854891       -0.1814216227
 Cl        -0.2973295386       -2.3214394202       -0.6643645824
 Cl        -3.3931619109       -2.0880105692       -0.9021061873
 Cl        -4.8252394453        0.5266863762       -0.0272994179
 Cl        -3.1474739186        2.9094961795        1.0841011668
 Cl         4.3096282947        0.8203339657       -1.8549728955
 Cl         5.6018714400       -0.3512886353        0.7484618487
 H          1.0794196226       -0.7618521043        2.4010645356
 H          3.5341694597       -0.9832254923        2.5688999250
 H          1.5037070911        0.8573792668       -1.5291503722
 H         -0.4140253939        2.1798411573        1.0862228789
