! pbe def2-sv(p) def2/J RI DEFGRID1 loosescf d4 GCP(DFT/SV(P)) printgap
%output
    printlevel normal
end
* xyz 0 1
C -2.3874955011 0.0374762222 -0.1303578026
C -0.9525091403 0.4899802896 0.1158958617
C -0.0018565474 -0.6711686634 0.1628295146
C 1.3153214095 -0.6119159964 0.0424696723
C 2.1356750554 0.6203557498 -0.1586642732
H -3.0581887579 0.8934808192 -0.1641410149
H -2.7208595552 -0.6275035824 0.6637649265
H -2.4609524318 -0.493620146 -1.0771208548
H -0.6544758751 1.1861203581 -0.6717069126
H -0.9047182105 1.0328832014 1.0659121204
H -0.4678423996 -1.6347856693 0.3220258923
H 1.889499568 -1.5284478709 0.0980988681
H 2.8163811088 0.7518156161 0.6826710092
H 1.5180532089 1.5090427749 -0.2440201913
H 2.7425538833 0.5230363011 -1.058884554
*
