  16
        -22.75301228
 C          2.7220802394        0.1529131336        0.7042100250
 C          1.9362523795       -0.1389723130       -0.5757495457
 C          0.4644101088       -0.0696139278       -0.3094753121
 C         -0.2190150895        1.1445346138       -0.2201914616
 N         -1.5099699687        1.2062651710        0.0530314237
 C         -2.1442411866        0.0572467909        0.2402152558
 C         -1.4768266951       -1.1551635449        0.1467747666
 N         -0.1825004894       -1.2149322761       -0.1245620215
 H          3.7901812416        0.0986042535        0.5093306963
 H          2.4713500776       -0.5752955621        1.4717977383
 H          2.4873073615        1.1463673398        1.0805169121
 H          2.1778472056       -1.1405472218       -0.9323084032
 H          2.2047482420        0.5895782476       -1.3434669324
 H          0.2824003839        2.0907152341       -0.3763760670
 H         -3.1997297697        0.1213547447        0.4644992707
 H         -1.9792603836       -2.1024209308        0.2894746581
  16
        -22.75217832
 C          2.7557280012       -0.6387325632        0.4612826919
 C          1.9497298879        0.3299669360       -0.3965394064
 C          0.4718605427        0.1866399485       -0.1853607736
 C         -0.4035718404        1.2648877967       -0.3372094338
 N         -1.7085914143        1.1412631259       -0.1757747564
 C         -2.1681916485       -0.0601852013        0.1451361547
 C         -1.3083250932       -1.1367423533        0.3040908136
 N         -0.0016177558       -1.0117625797        0.1378703488
 H          2.4510094065       -1.6596411485        0.2527278950
 H          2.5858787439       -0.4400603982        1.5165917509
 H          3.8173611628       -0.5333873337        0.2526687848
 H          2.1579008162        0.1345916032       -1.4534307776
 H          2.2422591903        1.3619022776       -0.1899019514
 H         -0.0462788047        2.2534576638       -0.5950929435
 H         -3.2377241148       -0.1474562891        0.2752546614
 H         -1.6626783915       -2.1235826233        0.5704213035
  16
        -22.75217352
 C          2.7499494234       -0.8139182390        0.1413132248
 C          1.9581034956        0.4573743707       -0.1308100437
 C          0.4750297628        0.2436294706       -0.0615934238
 C         -0.4235699440        1.2887331773       -0.2988616723
 N         -1.7309631699        1.1195171329       -0.2416832385
 C         -2.1719560912       -0.0967257313        0.0537114314
 C         -1.2907096779       -1.1396640236        0.2907651040
 N          0.0213539097       -0.9680132278        0.2328528637
 H          3.8167970007       -0.6130540879        0.0815964616
 H          2.4926547173       -1.5792662454       -0.5853390862
 H          2.5164532872       -1.1970762645        1.1304932773
 H          2.2039340531        0.8488825131       -1.1224085632
 H          2.2282978518        1.2306452057        0.5946396187
 H         -0.0797191554        2.2861442611       -0.5408169728
 H         -3.2446968006       -0.2218745197        0.0970613940
 H         -1.6297671048       -2.1380220168        0.5327381493
  16
        -22.75175885
 C          2.8258019703        0.6793304890        0.2429488401
 C          1.9383707625       -0.4709372510       -0.2137192431
 C          0.4639743241       -0.2204561648       -0.0955040326
 C         -0.1121607493        1.0386257187        0.0762849981
 N         -1.4213789943        1.2070092098        0.1602805829
 C         -2.1828678817        0.1272517226        0.0748957264
 C         -1.6219130358       -1.1311700950       -0.0928444075
 N         -0.3135369367       -1.2986778580       -0.1753185986
 H          3.8686438564        0.3730251024        0.2078854805
 H          2.5885693808        0.9681745152        1.2644487545
 H          2.7082269286        1.5466323278       -0.4024213433
 H          2.1631794722       -1.3725895839        0.3606017893
 H          2.1514687351       -0.7061519437       -1.2609712684
 H          0.4784911536        1.9400826914        0.1507763968
 H         -3.2503529640        0.2823995835        0.1445958766
 H         -2.2236953303       -2.0275116430       -0.1613362477
