! pbe def2-sv(p) def2/J RI DEFGRID1 loosescf d4 GCP(DFT/SV(P)) printgap
%output
    printlevel normal
end
* xyz 0 1
C -3.3823189394 -0.8050875148 -0.0464472651
O -1.9876392627 -0.7640574119 -0.3141155997
C -1.3490767652 0.3535679622 0.0544824728
O -1.9038042065 1.2792452314 0.5880502395
C 0.1271633626 0.3246519189 -0.2918937564
C 0.6675477021 -1.0802327958 -0.5523086484
C 2.1479474135 -1.0124987336 -0.9197927974
C 2.9487159482 -0.3257047874 0.1824901125
C 2.405800634 1.0765777488 0.4415962775
C 0.9296736509 1.0131314137 0.8166495317
H -3.7060951407 -1.8184199984 -0.2699039216
H -3.9100119008 -0.0871895711 -0.6777121807
H -3.5747192392 -0.5590608794 0.9996558796
H 0.2297082671 0.9189597995 -1.2096337023
H 0.5409722249 -1.6869356881 0.3465906896
H 0.1043445218 -1.5538519887 -1.3572637528
H 2.5310062668 -2.0215172446 -1.0846583186
H 2.2645569997 -0.4547633707 -1.8520448884
H 2.8806920484 -0.9149286829 1.0997646227
H 4.0013271023 -0.2709836935 -0.1025717854
H 2.9696808982 1.5523698457 1.2461071501
H 2.5274107748 1.6849604578 -0.4576148675
H 0.8122239371 0.4482532805 1.7443308201
H 0.5299892385 2.0142765 0.9829971783
*
