! pbe def2-sv(p) def2/J RI DEFGRID1 loosescf d4 GCP(DFT/SV(P)) printgap
%output
    printlevel normal
end
* xyz 0 1
C 3.5386345053 -0.5286557173 -0.0513790635
C 2.2160073129 -0.0582382695 0.5498300057
H 2.4299195883 0.4167277006 1.5129262025
C 1.2555245413 -1.2359226995 0.7848323217
C 0.2765883117 -1.3801721021 -0.3750197758
C -0.6972298149 -0.1911125692 -0.4369445899
H -1.0575602876 -0.0953116413 -1.4696904146
C 0.0592799237 1.1121991851 -0.0810624565
H -0.0723142816 1.3360754688 0.9830033922
C 1.5579437074 0.9781326783 -0.3674246135
O -0.4708379867 2.2419139197 -0.7435867359
C -1.9383634685 -0.3780589201 0.4613179866
C -2.8890546298 0.8124032529 0.3283955315
C -2.7170922844 -1.6523590044 0.125961082
H 3.365375745 -1.0696773288 -0.9794064367
H 4.1833954329 0.3211656388 -0.2649705681
H 4.0598395043 -1.1890043015 0.6382197037
H 1.8275760751 -2.1577501107 0.9040945261
H 0.6909869889 -1.0808826692 1.7053629589
H 0.8399169996 -1.4433747028 -1.3080069139
H -0.2755520297 -2.3127277954 -0.2785481668
H 1.6966497011 0.6966566379 -1.4147676393
H 2.0271247001 1.9538460508 -0.2260463891
H -0.3601099685 2.1168401147 -1.6929781351
H -1.6028091559 -0.4409547826 1.5025129281
H -3.7146671791 0.7126858306 1.0299597158
H -3.2992544406 0.8510566583 -0.6789378218
H -2.3833483934 1.7522065995 0.5229532336
H -2.9207574819 -1.7045787916 -0.9417487944
H -3.668520779 -1.6480589199 0.6531980908
H -2.1836073666 -2.5513301241 0.4225162388
*
