! r2scan-3c def2/J RI DEFGRID2 scfconv6 printgap
%output
    printlevel normal
end
* xyz 0 1
C -2.3976858214 -0.0177024907 1.5586261345
O -1.1705375047 -0.016950428 0.8413604129
C -1.2274258674 -0.0375366493 -0.4942059046
O -2.2615917735 -0.0524413561 -1.1129256808
C 0.1340514292 -0.0359764029 -1.1629290176
C 0.9707910196 -1.2725222643 -0.8029698149
C 1.5835242165 -1.1954044204 0.5914592487
C 2.4087594623 0.0775909335 0.7429640805
C 1.5246795049 1.297743382 0.5107833791
C 0.9167388174 1.2567788589 -0.887045193
H -2.48857075 -0.9620348136 2.0970933764
H -3.2328284511 0.0968301553 0.8653498012
H -2.3748740766 0.8111120142 2.2658617208
H -0.0918028236 -0.0757971884 -2.2349279007
H 0.3513002461 -2.1678144162 -0.892534148
H 1.7761720868 -1.3517321814 -1.5377192207
H 0.794208501 -1.2020336193 1.3430715267
H 2.2135344217 -2.0727974097 0.7541127025
H 2.8477314894 0.1199490156 1.7416183221
H 3.2256710364 0.0735865777 0.0168519763
H 0.7318505938 1.3131765707 1.2586977826
H 2.1109436047 2.2129616119 0.6196837798
H 0.2606415606 2.1168574045 -1.0383366326
H 1.7218091263 1.319676815 -1.6234794194
*
