! pbe def2-sv(p) def2/J RI DEFGRID1 loosescf d4 GCP(DFT/SV(P)) printgap
%output
    printlevel normal
end
* xyz 0 1
C -2.6660080302 0.5608716338 -0.0006950352
O -1.8153991297 -0.5633692412 0.0002130948
C -0.4618117274 -0.4125307791 0.0002679663
C 0.2496058244 -1.6118281164 0.0003229821
C 1.629151408 -1.6429119326 4.50255e-05
C 2.3390964892 -0.4563815557 -0.0004152328
C 1.6506744253 0.7418141807 -0.0003104929
C 0.2621420625 0.7889227476 0.000160553
O -0.3760065259 2.0057976947 0.0004202755
H -2.520836577 1.1766681914 -0.8908202841
H -2.5226514406 1.1768760518 0.8896400159
H -3.6768333576 0.1536756221 -0.0018205063
H -0.3272472541 -2.5230564725 0.0006811606
H 2.1453057443 -2.5902735544 0.0003000877
H 3.4179254741 -0.4565607681 -0.0006593261
H 2.1962291105 1.677513512 -0.0005230344
H 0.2899327567 2.7036300284 0.0005866756
*
