! pbe def2-sv(p) def2/J RI DEFGRID1 loosescf d4 GCP(DFT/SV(P)) printgap
%output
    printlevel normal
end
* xyz 0 1
C -3.1986279966 -0.3647901209 0.8854196434
O -1.7922182553 -0.3573687802 0.6874234992
C -1.334860599 0.1634775833 -0.4589518037
O -2.0478274955 0.6086120376 -1.3203531147
C 0.1767755853 0.1425775647 -0.5194468698
C 0.7371769981 -1.275651434 -0.3152784784
C 2.1510418662 -1.2394332991 0.276582909
C 2.9017847078 -0.0062178141 -0.2123889434
C 2.2519136499 1.266606858 0.3438731502
C 0.7433593259 1.0859109104 0.5474426862
H -3.4406716164 -1.2719437288 1.4360499563
H -3.7123545161 -0.3482706795 -0.0776501276
H -3.4899376485 0.5131304408 1.4655243686
H 0.4534731735 0.523054459 -1.5067294511
H 0.0802990052 -1.8329924344 0.3535367324
H 0.7494892624 -1.7907483754 -1.2775422666
H 2.1026382168 -1.2146677101 1.3663967892
H 2.6876419487 -2.1459712431 -0.0075903193
H 3.9471992756 -0.053068199 0.0965816765
H 2.8831777619 0.0079404259 -1.3035625176
H 2.7068579987 1.5283261197 1.3008393498
H 2.435315099 2.0944320734 -0.3429992415
H 0.5356592407 0.6589432452 1.5293953297
H 0.2435238752 2.0549215924 0.4933443186
*
