! pbe def2-sv(p) def2/J RI DEFGRID1 loosescf d4 GCP(DFT/SV(P)) printgap
%output
    printlevel normal
end
* xyz 0 1
C -2.2502161971 -1.0175713074 0.7497895449
C -0.8049149472 -0.4777957298 0.7425487779
H -0.5351472279 -0.1687335524 1.7616894171
C -0.6350291174 0.712846477 -0.2060122904
H -0.7611053495 0.3446774471 -1.2379701776
C 0.7886433887 1.2887506389 -0.0739239619
H 0.7738802262 2.0771065391 0.6900307099
C 1.7917329161 0.1933627915 0.3569235499
H 2.7544266615 0.4059478566 -0.1331038178
C 1.2994533908 -1.1617173022 -0.1650989262
H 1.9988408345 -1.9561935116 0.1396371018
O 0.0588472728 -1.5361209886 0.3418395608
O 1.2713403791 -1.0528699942 -1.5696482472
O 1.9471077829 0.0931279375 1.7468665369
O 1.1931043474 1.9113891991 -1.2658937878
O -1.6201028876 1.6824424688 0.0774649403
O -2.9463120966 -0.8122390085 -0.4468472128
H -2.786688588 -0.559917252 1.5898552556
H -2.1994100387 -2.0973520536 0.9000828122
H 0.8114689707 -1.8287802366 -1.9139287607
H 2.3351977884 0.9105537313 2.0800124161
H 1.3208156658 1.2178259522 -1.9281334818
H -1.3920803042 2.4845143762 -0.4078286685
H -3.0563172516 0.1417508072 -0.5554685085
*
