! pbe def2-sv(p) def2/J RI DEFGRID1 loosescf d4 GCP(DFT/SV(P)) printgap
%output
    printlevel normal
end
* xyz 0 1
C -2.5639633558 0.9671546648 4.76007e-05
C -1.2338700961 0.2813220135 -9.63567e-05
C -1.1498544891 -1.1097279626 -2.01954e-05
C 0.1002408389 -1.6988427748 0.0001202077
N 1.2324885413 -1.0145436825 -5.93086e-05
C 1.1694343392 0.3089432257 -0.0001630549
C -0.0443670088 0.9928958643 -4.30523e-05
C 2.4715953107 1.0480549475 4.19487e-05
H -3.1342625925 0.6808923407 0.8829955335
H -2.4467387044 2.0478644707 -0.0057877383
H -3.1394189532 0.6716706788 -0.8764033564
H -2.0447936324 -1.7135014416 -7.52566e-05
H 0.2103299403 -2.7759334997 8.96159e-05
H -0.0518751208 2.073520147 -3.28944e-05
H 2.5422672813 1.6910664179 -0.8757578861
H 2.5504100803 1.6748906326 0.8868624475
H 3.2917133205 0.3366236722 -0.0097208175
*
