! r2scan-3c def2/J RI DEFGRID2 scfconv6 printgap
%output
    printlevel normal
end
* xyz 0 1
C -2.1827660945 0.1342164001 -0.6602370023
C -1.4011390607 -0.2779053537 0.5788705961
O -0.1048562863 -0.7728060681 0.2384523232
C 0.8643145512 0.1289195429 0.0459036765
O 0.7155943158 1.3151307574 0.1718558307
C 2.1514453998 -0.5461585856 -0.3505276925
H -2.255698917 -0.6997109737 -1.3543131613
H -3.1826076038 0.4466158885 -0.3730696676
H -1.6831685423 0.9639159104 -1.1542575597
H -1.8923087117 -1.1030141166 1.0987336615
H -1.2868785485 0.5757446102 1.2550483205
H 2.2097829014 -0.5671054102 -1.4372468352
H 2.1722309635 -1.5648500315 0.0231194377
H 2.9943008239 0.0240431038 0.0285486414
*
