! r2scan-3c def2/J RI DEFGRID2 scfconv6 printgap
%output
    printlevel normal
end
* xyz 0 1
C -2.26403454 -0.2459864867 -0.2128608761
C -1.6687651896 0.9975815119 -0.3406496326
C -0.3184781625 1.1498419529 -0.0823851513
C 0.4506182743 0.0610478599 0.3063817833
C -0.1507753073 -1.183789881 0.425249132
C -1.5024382524 -1.3363846402 0.1698717704
C 1.9272717105 0.2297336017 0.5509407016
O 2.5849709855 0.2347819771 -0.703726914
H -3.3187744626 -0.3652122262 -0.4132120242
H -2.2587313477 1.8511178871 -0.6414048391
H 0.1467192681 2.1191926682 -0.1855147325
H 0.4417541306 -2.0380945283 0.7195797788
H -1.9615056867 -2.3094076495 0.2678348153
H 2.111148271 1.1775066075 1.079473066
H 2.3005501641 -0.595210915 1.1749295534
H 3.5310268196 0.3413857953 -0.561410159
*
