! pbe def2-sv(p) def2/J RI DEFGRID1 loosescf d4 GCP(DFT/SV(P)) printgap
%output
    printlevel normal
end
* xyz 0 1
C -2.2593571987 -1.0391383552 0.6857435765
C -0.833287142 -0.4491256512 0.788849027
H -0.6932378973 -0.0807686818 1.8165314971
C -0.6296711435 0.7187114038 -0.176577926
H -0.7450969681 0.3437176978 -1.2066352181
C 0.7907536886 1.2979158491 -0.0383600245
H 0.8066423801 2.021631312 0.7852841883
C 1.8266409707 0.188983493 0.275151138
H 2.7432312199 0.4103643913 -0.28122328
C 1.2637960966 -1.1643717702 -0.1763966537
H 1.9756059611 -1.9701089503 0.0681293805
O 0.1086891854 -1.495956944 0.5437283892
O 1.0475107094 -1.1066628996 -1.5579319376
O 2.1886183557 0.1406217933 1.6272012469
O 1.1276660678 2.0206841525 -1.1946430935
O -1.6172774876 1.6919074376 0.084679756
O -2.8477151315 -0.8978733682 -0.5752177248
H -2.883165878 -0.572856665 1.4574637755
H -2.1898429621 -2.111458568 0.8797111607
H 0.5651085327 -1.8993602229 -1.8252747116
H 1.5222964186 -0.3579605015 2.1159055624
H 1.240037347 1.3912940674 -1.9190737303
H -1.3382936836 2.5106244581 -0.3435360904
H -3.0155015386 0.0429365563 -0.7154159155
*
