! pbe def2-sv(p) def2/J RI DEFGRID1 loosescf d4 GCP(DFT/SV(P)) printgap
%output
    printlevel normal
end
* xyz 0 1
C -2.1041908447 -1.3644151813 -0.0789669388
C -1.0017707203 -0.5224340872 0.5863229121
H -1.396574512 -0.1359735883 1.5345170616
C -0.6181926873 0.6683468454 -0.298827533
H -0.5003211311 0.3330513986 -1.344829923
C 0.7248141151 1.238978652 0.1797894143
H 0.677836184 1.4549169746 1.2522050923
C 1.8222529289 0.1959088169 -0.0566825215
H 2.1816907705 0.2801517735 -1.0966056809
C 1.2354272585 -1.2328640062 0.0862918963
H 1.9843399733 -1.8757260781 0.5805971616
O 0.1305746494 -1.3153825932 0.9303138512
O 0.9645069895 -1.6958477113 -1.2071013952
O 2.857039554 0.4437477006 0.8530055224
O 0.9699600273 2.4743006318 -0.4403971784
O -1.6273138665 1.6466923463 -0.2388314862
O -3.332721438 -0.6946126291 -0.0785552031
H -2.2447678712 -2.2888062655 0.4878193773
H -1.7994804725 -1.6206754708 -1.106797325
H 0.5595905465 -2.5702848141 -1.1473679545
H 3.5876816682 -0.1648018844 0.6953825795
H 1.2201454092 2.3268155692 -1.3610789967
H -1.1896127687 2.5107948478 -0.2757253589
H -3.1732748589 0.2296328945 -0.3163188938
*
