! pbe def2-sv(p) def2/J RI DEFGRID1 loosescf d4 GCP(DFT/SV(P)) printgap
%output
    printlevel normal
end
* xyz 0 1
C -2.0217471537 -0.6178098939 -0.6237728484
C -1.1790951814 -0.0765065002 0.5584138441
H -1.810303824 -0.0072946548 1.4526770021
C -0.6275710969 1.3372006042 0.2663136496
H -1.3787491781 1.8680441997 -0.3305003677
C 0.6979024921 1.3018780723 -0.5322575975
H 1.148530485 2.2995988439 -0.4439109
C 1.6521164763 0.2692389543 0.1035433347
H 2.5694921457 0.2085652301 -0.491906875
C 0.9576196369 -1.1014765911 0.1392642647
H 1.6038755046 -1.8259066176 0.668921962
O -0.1800170777 -1.0186610626 0.954299226
O 0.6951721713 -1.5496230459 -1.1538529679
O 1.993979323 0.6407550076 1.421565232
O 0.5059102378 1.0667410006 -1.8980792419
O -0.4767616992 2.0734214372 1.45408949
O -1.9915995999 -2.0266368151 -0.6854035963
H -1.6273355218 -0.2680803407 -1.5794943126
H -3.0505621554 -0.2528412958 -0.5191304886
H -0.1123907371 -2.0982546346 -1.131159238
H 1.4781480039 0.0941646645 2.0318462585
H 0.5492168376 0.1076111273 -2.0507634267
H 0.4129021483 1.9175920102 1.8045780934
H -2.2548737425 -2.3795079585 0.1732087809
*
