  20
        -19.99478319
 C         -1.7913026591        0.7321741642        0.5764582372
 C         -0.7021792902       -0.3193648658        0.3646846044
 C         -1.0038322951       -1.1250321193       -0.8972742632
 C          0.7021504072        0.3193198289        0.3646929672
 C          1.7912492246       -0.7322586044        0.5764463352
 C          1.0039168182        1.1251487168       -0.8971319699
 H         -2.7640788757        0.2531679279        0.6650453307
 H         -1.6072201614        1.3016737169        1.4849921645
 H         -1.8324956913        1.4243265235       -0.2610610763
 H         -0.7362784267       -1.0064778790        1.2191710142
 H         -1.0824943043       -0.4729364159       -1.7632793440
 H         -0.2311410197       -1.8655097949       -1.0858468382
 H         -1.9509027682       -1.6484429204       -0.7828750164
 H          0.7362008727        1.0063184416        1.2192618496
 H          1.6066058568       -1.3024261481        1.4844712696
 H          1.8330205745       -1.4237742180       -0.2615922092
 H          2.7638988663       -0.2531548149        0.6660033597
 H          1.0824669306        0.4731716641       -1.7632418177
 H          1.9510650094        1.6484414566       -0.7826605227
 H          0.2313268547        1.8657759447       -1.0855928124
  20
        -19.99470472
 C         -1.4913991309       -0.1733062926        1.2432336109
 C         -0.6383449932       -0.4312784914        0.0002906098
 C         -1.4904446307       -0.1748778759       -1.2436185537
 C          0.6383578222        0.4313092979        0.0003805298
 C          1.4913463333        0.1731272496        1.2433289408
 C          1.4904859446        0.1750360640       -1.2435443587
 H         -1.7233886181        0.8863556477        1.3301827033
 H         -2.4282711850       -0.7222009704        1.1736512749
 H         -0.9853560261       -0.4942300398        2.1489780157
 H         -0.3375578941       -1.4856210114        0.0010598542
 H         -2.4278834844       -0.7227235983       -1.1734306938
 H         -1.7213493285        0.8848310439       -1.3327971786
 H         -0.9841975910       -0.4981332063       -2.1484200284
 H          0.3376027530        1.4856586805        0.0012654361
 H          0.9855707403        0.4946106974        2.1490244278
 H          1.7226814019       -0.8866551708        1.3305503112
 H          2.4285559489        0.7214123450        1.1735414916
 H          1.7215655005       -0.8846367476       -1.3327013956
 H          2.4278396145        0.7230295063       -1.1734033510
 H          0.9841721370        0.4981842318       -2.1483443282
  20
        -19.99097949
 C         -1.4391652405       -0.2797018351        1.2601021733
 C         -0.6396971444       -0.4246898939       -0.0354785132
 C         -1.5412799465       -0.0753652695       -1.2347843340
 C          0.6390890114        0.4362457462       -0.0348899312
 C          1.4458310823        0.2882746995        1.2552396021
 C          1.5340630631        0.0581642992       -1.2160704284
 H         -1.6766428102        0.7659556725        1.4461519369
 H         -2.3714131745       -0.8355978455        1.1819931097
 H         -0.8906543909       -0.6703166144        2.1126021921
 H         -0.3273632158       -1.4717066113       -0.1176031667
 H         -1.0955703927        0.6944006383       -1.8590966629
 H         -1.7263706649       -0.9463472099       -1.8581196905
 H         -2.5028893133        0.3012288281       -0.8945083808
 H          0.3442075517        1.4873185923       -0.1361573801
 H          1.6480874028       -0.7612619851        1.4593905286
 H          2.3985573493        0.8046132015        1.1559735311
 H          0.9218943373        0.7156364650        2.1052270209
 H          1.8919594295       -0.9630338953       -1.0999601773
 H          2.3972879789        0.7184754777       -1.2645757728
 H          1.0027236307        0.1257457505       -2.1612289112
