! r2scan-3c def2/J RI DEFGRID2 scfconv6 printgap
%output
    printlevel normal
end
* xyz 0 1
C -3.8053793064 0.7179261905 -0.0050802824
O -2.3881251823 0.7951297602 -0.0086206586
C -1.707736535 -0.3652001867 0.0038348934
O -2.2405097454 -1.4489507868 0.0100342338
C -0.2446505024 -0.1569532683 0.0012777607
C 0.5852705018 -1.2789279297 -0.0046118513
C 1.9543969156 -1.1388988746 -0.0059923467
C 2.5214603091 0.1353767344 -0.0006501201
C 1.6969025958 1.2580081724 0.0055400306
C 0.3247613773 1.1136612733 0.0063502137
O 3.8715988071 0.2347281919 -0.0015030246
H -4.1751597566 1.4573558409 -0.7140064421
H -4.1757687383 0.9447999429 0.9965222369
H -4.1251938235 -0.2851206871 -0.2941818126
H 0.1287516527 -2.2567201047 -0.008097277
H 2.6085898349 -1.9958190957 -0.0108157939
H 2.1390269641 2.2459292313 0.0098511821
H -0.312286452 1.9836899621 0.0112359647
H 4.139090779 1.1623524656 0.0029478505
*
