! r2scan-3c def2/J RI DEFGRID2 scfconv6 printgap
%output
    printlevel normal
end
* xyz 0 1
C -2.3664042528 0.8344572532 -0.8676688649
N -1.5972418494 0.0855211973 0.0971567154
C -2.3427773017 -0.9434366692 0.7752743901
C -0.2203057037 0.0310141902 0.0312241362
C 0.516275251 1.1436874715 -0.3965047639
C 1.8950306564 1.1131806734 -0.431133969
C 2.5891272842 -0.0163526276 -0.0302928884
C 1.8756597234 -1.1173848011 0.4089311444
C 0.4946712326 -1.1013182357 0.4388613207
H -3.0569214428 0.1692926916 -1.3970368328
H -1.7163956447 1.2953893352 -1.6064008155
H -2.9531973456 1.617015947 -0.3752217237
H -3.3354331085 -0.5543451744 1.0051394546
H -1.8542400835 -1.2000823549 1.7140944531
H -2.4604745883 -1.854592966 0.1720290974
H 0.0061363744 2.0507111396 -0.6833348189
H 2.434724698 1.9878717719 -0.7655751582
H 3.6679915366 -0.0356080739 -0.0564318202
H 2.3992169502 -2.0086807112 0.7251492221
H -0.0270213004 -1.9862881353 0.7671954273
*
