! pbe def2-sv(p) def2/J RI DEFGRID1 loosescf d4 GCP(DFT/SV(P)) printgap
%output
    printlevel normal
end
* xyz 0 1
C -2.0107096614 -1.4395175936 -0.0884806605
C -1.0144931203 -0.5251500186 0.6575974301
H -1.4772415449 -0.1946251454 1.5968277181
C -0.7003850585 0.7252869808 -0.1762130922
H -0.6548327939 0.468709999 -1.2491675099
C 0.6754208941 1.2506177002 0.2382409538
H 0.697705201 1.362696028 1.3343239649
C 1.7204110199 0.2136270312 -0.1828055544
H 1.8309863279 0.2655313328 -1.2770564729
C 1.2391869352 -1.2063450554 0.1725154021
H 2.0453292395 -1.7000327569 0.7327039215
O 0.1493475388 -1.2322906153 1.0550967778
O 0.9580490054 -1.8784056427 -1.0215223048
O 2.9525526108 0.4323611278 0.446990753
O 0.9812289173 2.4725352555 -0.3821626232
O -1.6523055447 1.7436525873 0.0349645757
O -3.1479447259 -0.713914375 -0.510943649
H -2.3632815763 -2.2171982262 0.5933760235
H -1.5055111661 -1.91190808 -0.9359916126
H 0.8256065206 -2.8150731233 -0.8310689265
H 3.1871645504 1.3579008945 0.3029393162
H 0.18740137 3.0200029434 -0.3309774635
H -2.5299956738 1.3377879329 0.0502059911
H -2.9885195813 -0.3568171812 -1.391101719
*
