! pbe def2-sv(p) def2/J RI DEFGRID1 loosescf d4 GCP(DFT/SV(P)) printgap
%output
    printlevel normal
end
* xyz 0 1
C 1.201568284 -1.2309235018 -0.6763034931
C 0.671171848 -0.2841957467 0.4066298876
C 1.5933112991 0.9219457544 0.5629568608
C -0.7215926658 0.1599374691 -0.0210853214
O -0.906045892 1.0836885095 -0.7706788974
C -1.8483664454 -0.6634512973 0.5503493561
H 0.5561327538 -2.0997392504 -0.7872519465
H 1.2500394214 -0.7116302414 -1.6306342635
H 2.200228482 -1.5735981102 -0.4153327956
H 0.6034678578 -0.8283186639 1.3535885072
H 1.5939397214 1.5047433294 -0.354643817
H 2.6092158103 0.5998279652 0.7785448152
H 1.2501876561 1.5610942366 1.3735065626
H -2.7852917181 -0.4193428647 0.0568386919
H -1.9382044376 -0.4420849443 1.6127651074
H -1.6357510774 -1.7243521018 0.4441941464
*
