! pbe def2-sv(p) def2/J RI DEFGRID1 loosescf d4 GCP(DFT/SV(P)) printgap
%output
    printlevel normal
end
* xyz 0 1
C -2.9205763514 -1.1004117767 0.179082193
O -1.7923780431 -0.6098996815 -0.5297168276
C -1.0502138946 0.3061093609 0.1068768484
O -1.3168225565 0.7123127045 1.2074188025
C 0.1080881548 0.7779580819 -0.7580047313
C 0.8177956661 -0.4068746135 -1.4189603373
C 1.3972858412 -1.3583393464 -0.3662680299
C 1.8654256137 -0.5988805729 0.8814454145
C 2.306996824 0.8113848824 0.5084063126
C 1.0955091457 1.6300645449 0.0532946066
H -3.3598912433 -1.8749016111 -0.4443455303
H -3.638428924 -0.2963556227 0.3538311254
H -2.6140600126 -1.5106714741 1.1435058111
H -0.354025901 1.3914562141 -1.5403927265
H 0.1231890757 -0.9438339751 -2.0650056109
H 1.6181580282 -0.0105559791 -2.0461106225
H 0.644852863 -2.0958387991 -0.0813775886
H 2.2348642431 -1.9023760341 -0.8077223282
H 1.0510458421 -0.5237533693 1.6039086795
H 2.6823947934 -1.1407733343 1.3609034731
H 2.7737809668 1.3000057393 1.3648102679
H 3.052983413 0.7576948925 -0.2871615421
H 0.5684157106 2.0143629207 0.9286022895
H 1.4294294086 2.4827824563 -0.53944023
*
