! r2scan-3c def2/J RI DEFGRID2 scfconv6 printgap
%output
    printlevel normal
end
* xyz 0 1
C 3.730958595 -0.3011156023 -0.1494815118
C 2.2913853332 -0.1725977992 0.3398933958
H 2.3044524318 0.0747000939 1.4080096486
C 1.5217859489 -1.4764733327 0.1516895312
C 0.0792899533 -1.336844083 0.6289084638
C -0.6713937054 -0.233325584 -0.1248310393
H -0.6650591909 -0.4746103069 -1.1924880819
C 0.1061225018 1.0813215374 0.0642717795
H 0.1051572842 1.3273375472 1.1415648714
C 1.5572344668 0.9368125542 -0.4064079889
O -0.5291114523 2.1257976746 -0.6489806827
C -2.1438000314 -0.0787860941 0.3261658684
C -2.9874815239 0.5184315813 -0.8005660896
C -2.7947201216 -1.3897865387 0.7701145166
H 4.2728881942 0.6301313129 0.0003520972
H 4.2482716108 -1.0900998594 0.3916652007
H 3.7511094576 -0.5429119657 -1.2100507995
H 1.5299584846 -1.7479549753 -0.9065440912
H 2.012216582 -2.2798415395 0.7060245313
H -0.4255157315 -2.2905855189 0.4813143953
H 0.0736325565 -1.1101862893 1.6979971011
H 1.5536464047 0.7200966242 -1.4774453603
H 2.0762534842 1.88980689 -0.2599270981
H 0.0207249955 2.9142929401 -0.584832092
H -2.163696325 0.6112993636 1.1768377694
H -3.0554555865 -0.1845567692 -1.6287167062
H -2.5434459224 1.4393398891 -1.1607934789
H -3.9946205469 0.7297568131 -0.4472564713
H -2.333220699 -1.790226831 1.6684338729
H -2.7375626557 -2.1354522785 -0.0200143142
H -3.845881693 -1.2107746526 0.9871966201
*
