! r2scan-3c def2/J RI DEFGRID2 scfconv6 printgap
%output
    printlevel normal
end
* xyz 0 1
C -2.2826587712 1.2636312667 0.2151171834
C -1.4216833844 0.0642235313 -0.1785125663
C -2.2528071268 -1.2163441468 -0.1163307935
C -0.1765853323 -0.0392201869 0.7244088881
C 1.1861241501 -0.0212960448 0.0074923618
C 1.304695459 -1.1888666449 -0.9742222228
C 1.3933949681 1.3035840405 -0.7298572744
C 2.28138131 -0.1639715611 1.0705914394
H -2.634499083 1.1597496226 1.2397400109
H -1.7125376271 2.1866712344 0.1369279067
H -3.1505472185 1.3423380918 -0.4368688508
H -1.1104580951 0.2081674979 -1.2167606289
H -1.6578296492 -2.075882466 -0.4157810886
H -2.6173745805 -1.3837266338 0.8954115957
H -3.1122350972 -1.1476784703 -0.7806073779
H -0.1853262779 0.7875092942 1.4380076867
H -0.236924517 -0.9609076275 1.3072087584
H 1.1644343033 -2.1357447681 -0.4571035135
H 2.2907180778 -1.1946591127 -1.4344111239
H 0.5640789732 -1.1178501606 -1.7663041437
H 0.6477093079 1.4462649713 -1.5073583661
H 2.3756438807 1.3252592852 -1.1970810689
H 1.3271096683 2.1386200644 -0.0356580745
H 2.2288537219 0.6514642564 1.7888446512
H 3.2660491454 -0.1481582369 0.6084246177
H 2.1734488452 -1.1021751988 1.6106785173
*
