! r2scan-3c def2/J RI DEFGRID2 scfconv6 printgap
%output
    printlevel normal
end
* xyz 0 1
C -4.3916206715 -0.0003493675 -0.0009035894
C -3.6977171907 -0.5791360041 -1.0501428809
C -2.3147951106 -0.5826185789 -1.0506382739
C -1.6153239671 0.0002909002 4.3383e-05
C -2.3157344442 0.5829303919 1.0501971739
C -3.698673133 0.5788100754 1.0487486923
C -0.1380213692 0.0002496014 0.0003952728
C 0.5890385572 -1.188886181 0.0632569646
C 1.9742795345 -1.2043559923 0.065396112
C 2.656760822 -0.0002145994 -7.02947e-05
C 1.9746601446 1.2041533159 -0.0651457203
C 0.5894080737 1.1891465845 -0.0625081231
Cl -0.251714519 2.6902334602 -0.1716928057
Cl 4.3779308343 -0.0005089314 -0.0006285202
Cl -0.2525085158 -2.6897007213 0.1728696188
H -5.4714784794 -0.0007061046 -0.0012296206
H -4.2346336712 -1.030074027 -1.8714365469
H -1.7710199582 -1.0270094236 -1.8712775046
H -1.7727633545 1.0275383581 1.8712284355
H -4.2363490529 1.0295613325 1.8696716638
H 2.5083023468 -2.1388061034 0.1194610777
H 2.5090142623 2.1384184575 -0.119362379
*
