! pbe def2-sv(p) def2/J RI DEFGRID1 loosescf d4 GCP(DFT/SV(P)) printgap
%output
    printlevel normal
end
* xyz 0 1
C -2.2378204424 -1.174174548 0.1008250433
C -0.8585272197 -0.5754758329 0.4126848419
H -0.8287854605 -0.2898908126 1.4734138205
C -0.5675839026 0.6640922557 -0.4391242096
H -0.5297016375 0.355157769 -1.4985891062
C 0.8030679931 1.2680662954 -0.0634849451
H 0.6544683416 2.0192672575 0.7201112023
C 1.74422165 0.1889955456 0.5054571032
H 2.7763328425 0.4518965668 0.2240482145
C 1.3999228751 -1.1600691422 -0.1418651818
H 2.0686855838 -1.9544664663 0.2365674394
O 0.1098685914 -1.5928437388 0.1620642865
O 1.5903028733 -1.0037208335 -1.5264951401
O 1.5941242504 0.1547743327 1.8979536176
O 1.3729203938 1.9344726224 -1.1570469219
O -1.6042928066 1.6022835265 -0.2613486428
O -3.2786911349 -0.4377903121 0.6698408078
H -2.2831916213 -2.178025525 0.5293418844
H -2.3564214774 -1.2540220639 -0.9909007412
H 1.2717649878 -1.800920881 -1.967551156
H 2.1086660989 -0.5739542954 2.2636793313
H 1.6351853933 1.266890964 -1.8057932321
H -1.3237415297 2.4333546015 -0.6627895309
H -3.1439824981 0.4899317438 0.4291034306
*
