! pbe def2-sv(p) def2/J RI DEFGRID1 loosescf d4 GCP(DFT/SV(P)) printgap
%output
    printlevel normal
end
* xyz 0 1
C -2.1852760355 -0.9372600188 -0.1453236855
C -1.1153543593 -0.3466977466 0.790586347
H -1.5787126815 -0.3059035271 1.7859352179
C -0.7322565858 1.1050405012 0.4485121031
H -1.5881274945 1.5751106397 -0.060135111
C 0.5002196196 1.2479366387 -0.4762059925
H 0.8625456984 2.2830450439 -0.3879998767
C 1.6242337452 0.3160470668 0.0180426375
H 2.4432587141 0.3232212592 -0.7068291556
C 1.0919692008 -1.122780474 0.1266065556
H 1.8498451749 -1.7453722621 0.6333197531
O -0.0162270918 -1.2215544751 0.982596018
O 0.8440518206 -1.595147602 -1.1624001684
O 2.1509259487 0.7455640402 1.2426500523
O 0.1875882471 1.0743727814 -1.8213855891
O -0.4991216719 1.7386862479 1.6941445703
O -1.7685846909 -0.9280879037 -1.4911184171
H -3.1003590394 -0.3453586946 -0.0171883429
H -2.3836912778 -1.9665386009 0.1865672072
H 0.3494802826 -2.4209134934 -1.1048870295
H 1.4256883057 0.7724345244 1.8861243129
H -0.0720464504 0.1478692206 -1.9576266725
H -0.2290629484 2.6517361522 1.5388281358
H -2.5140179263 -1.1397418829 -2.0611315004
*
