! pbe def2-sv(p) def2/J RI DEFGRID1 loosescf d4 GCP(DFT/SV(P)) printgap
%output
    printlevel normal
end
* xyz 0 1
C -3.3845067404 -0.3529803836 -0.1994745384
C -2.2167410089 0.3265414224 0.5096570846
H -2.5995532477 0.8351691084 1.4012116768
C -1.5550995582 1.3609558958 -0.4114252962
C -0.0844377936 1.5564111969 -0.0530598692
C 0.7011034427 0.2862048036 -0.4000540927
H 0.9413137338 0.2809994544 -1.4688275838
C -0.1528247327 -0.9360383904 -0.1176709136
O -0.0223350206 -1.9817570916 -0.7052699104
C -1.1791495634 -0.7209913915 0.9638950943
C 2.033776417 0.1693370209 0.3777985673
C 2.847757123 -1.0256437032 -0.1129782777
C 2.867234027 1.442366055 0.2330038031
H -4.0811093981 0.3910444701 -0.5801948133
H -3.0219138674 -0.9485574961 -1.0345287082
H -3.9219475597 -1.0083182041 0.4823174504
H -1.6173752504 1.016027967 -1.446618504
H -2.0909056533 2.3094455042 -0.3455659837
H 0.3215214774 2.403569284 -0.6070397108
H 0.0017934817 1.7816960504 1.0120127693
H -1.6706566962 -1.6649051073 1.2009429475
H -0.6592783436 -0.3640267813 1.8545903702
H 1.7997087498 0.025281867 1.439709637
H 2.2657360795 -1.9420141029 -0.0775766716
H 3.7336943521 -1.1562326537 0.5045426217
H 3.165874735 -0.8657178757 -1.1409597291
H 2.3773355081 2.2980635877 0.6889224864
H 3.04416843 1.6615625402 -0.8176641317
H 3.8305828054 1.3064781294 0.719535938
*
