! pbe def2-sv(p) def2/J RI DEFGRID1 loosescf d4 GCP(DFT/SV(P)) printgap
%output
    printlevel normal
end
* xyz 0 1
C 1.3890286628 2.4748111532 1.1971801646
C 1.6973298506 1.6790028549 -0.0705295109
C 2.7748560025 0.5952070917 0.1902155317
C 1.9835857738 -0.6762826253 0.1290921818
C 2.3472634062 -1.9872375946 0.3397407467
C 1.3824600682 -2.9764971904 0.2000418476
C 0.0777324029 -2.6505548567 -0.1258618238
C -0.292539775 -1.3296886768 -0.3405567871
C 0.6772102058 -0.3428758578 -0.2245861691
O 0.491764037 0.9743433324 -0.4415089316
O -1.6027781673 -1.02088599 -0.6853870634
C -2.2395749783 -0.1208606143 0.1196136201
O -1.83552952 0.2550323473 1.1875911288
N -3.4037215086 0.2453620571 -0.4565106548
C -4.3296178264 1.1474033372 0.177255525
C 2.0714740105 2.6037574276 -1.2253966372
H 1.0613611276 1.7971310518 1.982150259
H 2.2702042795 3.0181124756 1.5289989674
H 0.5852971524 3.1799648978 1.002423465
H 3.5539783021 0.6124239293 -0.5755900505
H 3.2505936918 0.7335925107 1.161621554
H 3.3614707505 -2.2398164567 0.6091949179
H 1.6468603692 -4.0102235062 0.3599043756
H -0.6760520616 -3.4166855728 -0.2178272569
H -3.6296107458 -0.143501726 -1.3572363731
H -5.2895594162 0.6583197006 0.3564928153
H -4.4887770559 2.0347066002 -0.4387691947
H -3.8927446701 1.4435729687 1.1293280484
H 1.2598719565 3.3006569601 -1.417373082
H 2.2483066209 2.023028438 -2.1280875479
H 2.9697865092 3.1634810191 -0.9786722154
*
