! pbe def2-sv(p) def2/J RI DEFGRID1 loosescf d4 GCP(DFT/SV(P)) printgap
%output
    printlevel normal
end
* xyz 0 1
C -2.4023308049 -0.730585236 -0.0096236598
C -0.979366435 -0.2835354438 0.3423555564
H -0.9391813925 -0.0226144378 1.4114393794
C -0.5373061437 0.925503163 -0.496572607
H -0.5501872544 0.6468543782 -1.5566844376
C 0.9038061231 1.3466757542 -0.1120751515
H 0.8443151212 2.1693655472 0.6132068613
C 1.6755603605 0.1714747581 0.5370993235
H 2.7406237043 0.2966286239 0.293343001
C 1.211736641 -1.1419880702 -0.0994828363
H 1.7618612813 -1.9880936346 0.3424413664
O -0.1357781177 -1.413717924 0.1196314606
O 1.4953297771 -1.0390105882 -1.4731276802
O 1.4825643784 0.0755632757 1.9250181519
O 1.616560404 1.8611459188 -1.2000634458
O -1.4487035407 1.9848738609 -0.3908960291
O -2.8791230667 -1.6948479937 0.8867359318
H -2.4028891497 -1.1167821209 -1.0390541301
H -3.0817245961 0.1215542197 0.0490001437
H 1.1302511681 -1.814624034 -1.9158058575
H 1.9093896249 0.8265273 2.3527282161
H 1.7337423516 1.1478144173 -1.8423415882
H -1.4856798451 2.2847250372 0.5253239361
H -2.2134616114 -2.3905680004 0.9459446729
*
