! pbe def2-sv(p) def2/J RI DEFGRID1 loosescf d4 GCP(DFT/SV(P)) printgap
%output
    printlevel normal
end
* xyz 0 1
C -3.3078346396 -0.905574208 -0.0220508973
O -1.8884378526 -0.9155772806 -0.0333563084
C -1.2637721337 0.2720497376 0.0114638763
O -1.8438656371 1.3299163924 0.0504251452
C 0.2123631569 0.1317636084 0.0019066289
C 0.9824826389 1.2924985424 0.0241322975
C 2.3615577698 1.2096457609 0.0209797063
C 2.9795411183 -0.0307274173 -0.003573929
C 2.2170423526 -1.188127615 -0.0262729092
C 0.8366609701 -1.112579243 -0.0237624017
H -3.6438785808 -1.6680613418 -0.7230078503
H -3.6775827994 0.0784373743 -0.3170305356
H -3.6626985058 -1.1414819307 0.9831648805
H 0.4776844147 2.2465336809 0.0436316503
H 2.9567967258 2.1104043272 0.0382188979
H 4.057705062 -0.0963110083 -0.0047052418
H 2.7024050761 -2.1527819276 -0.045506751
H 0.2368582178 -2.0088709535 -0.0410123536
*
