! pbe def2-sv(p) def2/J RI DEFGRID1 loosescf d4 GCP(DFT/SV(P)) printgap
%output
    printlevel normal
end
* xyz 0 1
C -3.1051518931 -0.4735169394 -0.5756332761
C -2.2614106666 0.4662674774 0.2842069243
H -2.9399023442 1.0290117483 0.9343381014
C -1.4655635476 1.4524146483 -0.5960231063
C 0.0338422817 1.4251355916 -0.3068914909
C 0.5668814665 0.0049325507 -0.4702903174
H 0.3687614265 -0.3178010303 -1.5014342618
C -0.192272549 -0.9677244601 0.4144523104
O 0.0978177628 -2.1366716224 0.4903456681
C -1.3321745215 -0.3559389153 1.1882243347
C 2.0842053961 -0.1670019169 -0.2386330407
C 2.9048176727 0.5385825033 -1.3146520009
C 2.5105232904 0.3010235032 1.1510052768
H -2.4659836325 -1.0972014253 -1.1972100631
H -3.7108912707 -1.1258329857 0.0495741544
H -3.7714854811 0.0952596297 -1.2207474244
H -1.6167960304 1.1969703828 -1.6470188524
H -1.8407684586 2.4673569115 -0.4539396064
H 0.542103156 2.0934164778 -1.0036783028
H 0.2231386464 1.7916289227 0.7020981465
H -1.8925540374 -1.1468026277 1.6895736877
H -0.8980248279 0.2892541787 1.9558240469
H 2.2783847111 -1.2433650179 -0.3061909936
H 2.7853963828 1.617771145 -1.2513850901
H 2.6040710665 0.2134605541 -2.3081163804
H 3.9600683499 0.3090779832 -1.1861537113
H 1.9162981356 -0.1878842401 1.919920273
H 2.4046562554 1.3786789268 1.2529959975
H 3.5550962292 0.049352414 1.3200200971
*
