! pbe def2-sv(p) def2/J RI DEFGRID1 loosescf d4 GCP(DFT/SV(P)) printgap
%output
    printlevel normal
end
* xyz 0 1
C 2.7215902183 0.1217147173 -0.7127973607
C 1.9332985798 -0.1243407862 0.5749267295
C 0.4584064662 -0.0400128062 0.3099899225
C -0.1904226256 1.1893653383 0.2163713378
C -1.5444620012 1.2118574574 -0.0649958962
C -2.209519702 0.0082652005 -0.2445667913
C -1.4761564497 -1.161536688 -0.1300715655
N -0.182824651 -1.1880145752 0.1384285035
H 2.4533004722 -0.6198235572 -1.4612980006
H 3.789712991 0.0523832584 -0.521234858
H 2.5040101289 1.1098359316 -1.1131192657
H 2.2173316541 0.61712112 1.3246385685
H 2.1610341248 -1.1202790906 0.9550180261
H 0.3601190845 2.1063187843 0.3660265116
H -2.0745757154 2.1508311469 -0.1419311475
H -3.2654248236 -0.0200742231 -0.4646707988
H -1.9431702534 -2.1301122421 -0.257686851
*
