! pbe def2-sv(p) def2/J RI DEFGRID1 loosescf d4 GCP(DFT/SV(P)) printgap
%output
    printlevel normal
end
* xyz 0 1
C 1.3065443051 -0.949832661 -0.3750665581
C 0.5270875605 0.0696542997 0.4603918303
C 0.728840686 1.4873472615 -0.0821963108
O -0.8405738197 -0.2738264476 0.620434888
C -1.6263171242 -0.3200876469 -0.5454171427
H 2.3722986833 -0.7712605181 -0.2627637662
H 1.0823533388 -1.9583540917 -0.0357801603
H 1.054620102 -0.8670384094 -1.4300241524
H 0.8965864711 0.0331976071 1.4927277159
H 0.4845694543 1.5406564808 -1.1408298291
H 1.7675887434 1.779409521 0.0443131562
H 0.0991502399 2.1872659038 0.4619078546
H -1.2679354021 -1.0736147481 -1.2544585225
H -1.6759229008 0.6514779576 -1.0478924784
H -2.6260739512 -0.5961261184 -0.2136097798
*
