! r2scan-3c def2/J RI DEFGRID2 scfconv6 printgap
%output
    printlevel normal
end
* xyz 0 1
C -3.8918282797 -0.0610638409 -1.4234885942
N -2.6188970235 0.0276780315 -0.7519150444
C -2.4870873752 -0.256901137 0.5654928342
O -3.3922639218 -0.5802293986 1.2857071889
O -1.2198005477 -0.1994906867 1.0565059472
C -0.1984796596 0.4733481248 0.41464359
C -0.323605586 1.7876648754 0.0363759624
C 0.7564034958 2.4560672595 -0.5569712449
C 1.944220945 1.8130542104 -0.7633199723
C 2.1088372151 0.4663102728 -0.3772136246
C 1.0236447054 -0.2234600264 0.2240010183
C 1.1864248164 -1.569324842 0.6105744859
C 2.3778400132 -2.2080696858 0.4089540172
C 3.4542389337 -1.5307521894 -0.1846884041
C 3.3233375977 -0.2255217076 -0.5685643022
H -3.8835812716 -0.8566344727 -2.1711797579
H -4.1320519892 0.8862480462 -1.9092503388
H -4.6441440731 -0.2843553191 -0.6693528845
H -1.7982315786 0.2065869596 -1.3096839175
H -1.2546406096 2.3083461339 0.2069566978
H 0.6350283474 3.4896414845 -0.8440846379
H 2.7762668287 2.3283489023 -1.2199262965
H 0.3528221207 -2.0756255224 1.0728254157
H 2.4990503459 -3.2388180654 0.7069229168
H 4.3890544215 -2.0506858522 -0.3344368321
H 4.1506089594 0.2999698469 -1.0235312524
*
