! pbe def2-sv(p) def2/J RI DEFGRID1 loosescf d4 GCP(DFT/SV(P)) printgap
%output
    printlevel normal
end
* xyz 0 1
C -2.3375001764 -1.0473814873 0.3891180023
C -1.0731655506 -0.2700310091 0.8157732868
H -1.3032098263 0.1926848419 1.7867471511
C -0.6904662932 0.8504037477 -0.1691410033
H -0.6917593535 0.4749415402 -1.2004392638
C 0.735444014 1.2995016817 0.1879842111
H 0.7931372246 1.5001206744 1.2660474085
C 1.7084115132 0.152555831 -0.1448189426
H 1.9647841415 0.2019907534 -1.2164081281
C 1.0112619356 -1.2049547077 0.0834452247
H 1.751200036 -1.9086889927 0.4946252542
O 0.016386 -1.1503147662 1.0630968443
O 0.5287745228 -1.6388545726 -1.1520642527
O 2.866860463 0.2064217332 0.6413809935
O 1.0983304666 2.5067598329 -0.4312926149
O -1.6177838232 1.9024715671 -0.1511223199
O -2.2218926965 -1.7241277395 -0.8369608627
H -3.178746276 -0.3441919564 0.3737063845
H -2.5261498912 -1.8212565403 1.136066184
H -0.2321517409 -2.2253278661 -0.9982698348
H 3.2316806306 1.0981675863 0.579292603
H 0.9082347207 2.4487549989 -1.3754023755
H -1.4521377534 2.4589976667 0.6191782486
H -2.2127097399 -1.0804046082 -1.5546764218
*
