! pbe def2-sv(p) def2/J RI DEFGRID1 loosescf d4 GCP(DFT/SV(P)) printgap
%output
    printlevel normal
end
* xyz 0 1
C 2.7387870162 -0.6694098221 -0.446101619
C 1.9506854162 0.3424108404 0.3770051252
C 0.4654533404 0.2134411189 0.1804829835
C -0.3756479192 1.3141003052 0.339157329
C -1.7382559411 1.14807565 0.1703491263
C -2.2234146561 -0.1099135309 -0.1539394341
C -1.307812672 -1.1404343277 -0.2895797589
N -0.0063148464 -0.9869551806 -0.1269963918
H 2.5630310498 -0.5106635016 -1.5072039171
H 2.4200959296 -1.6765193586 -0.1957356071
H 3.803748556 -0.5709420765 -0.2487919335
H 2.259132265 1.3600894928 0.126436472
H 2.164703262 0.1872167679 1.4394872429
H 0.0365129544 2.2804942569 0.589798884
H -2.4120238332 1.985347418 0.2869306336
H -3.2785230446 -0.2834411473 -0.2976387109
H -1.6272125031 -2.1438793511 -0.5421626898
*
