! pbe def2-sv(p) def2/J RI DEFGRID1 loosescf d4 GCP(DFT/SV(P)) printgap
%output
    printlevel normal
end
* xyz 0 1
C -2.4939182357 -0.7127877038 0.0196085775
C -1.1131966042 -0.4373455752 0.6347648476
H -1.1042332635 -0.7253556134 1.697484955
C -0.7280889367 1.0589100591 0.5633329771
H -1.6014112827 1.6436255061 0.238237172
C 0.4039868918 1.2626062194 -0.457056238
H 0.7578977312 2.304083788 -0.403184058
C 1.6070117571 0.3670281997 -0.0646946016
H 2.3051611095 0.34041808 -0.9081270097
C 1.1369548705 -1.0802366585 0.246089225
H 1.2740053946 -1.2782972872 1.3218774168
O -0.2243462767 -1.2514914764 -0.1004581561
O 1.859562354 -2.0471072574 -0.4182590288
O 2.3163978212 0.9242414387 1.0072607864
O -0.027301332 1.0365201322 -1.7701725808
O -0.3341299134 1.4554229891 1.8626744743
O -2.4506461485 -0.5430918396 -1.376511665
H -3.2318163373 -0.0084898085 0.4062343936
H -2.802044919 -1.7322182208 0.2748546681
H 1.7147880697 -1.9451175243 -1.3674666421
H 1.71138687 0.9998194891 1.7607347521
H -0.8638032021 0.5401589981 -1.7597047806
H -0.1982499259 2.4105179259 1.872677528
H -1.9023861793 -1.2546652224 -1.7326049062
*
