  23
        -42.86758008
 C          4.4848299134       -0.2806706454        0.0410216025
 C          3.9388505974        0.8577917517        0.6111130058
 C          2.5740220088        1.0679947822        0.5709342529
 C          1.7475833730        0.1354662433       -0.0470679331
 C          2.2916708468       -0.9998921169       -0.6330757978
 C          3.6595644688       -1.2028360332       -0.5792168531
 N          0.3512149951        0.3908440512       -0.0841761498
 C         -0.5815084818       -0.6531094234        0.0742311178
 O         -0.2318168959       -1.8033608256        0.2489356003
 C         -1.9474256715       -0.1964915405        0.0276685793
 C         -2.2965795143        1.1235667423       -0.1284802237
 C         -1.2018983172        2.0360693499       -0.2357333386
 N          0.0306603011        1.6663544840       -0.2072724693
 N         -3.5805510675        1.5437471929       -0.2243539276
 Cl        -3.1664696653       -1.4123603041        0.2053573944
 H          5.5509632793       -0.4472836382        0.0794900020
 H          4.5772934671        1.5825715061        1.0938457816
 H          2.1342375184        1.9496331168        1.0102580087
 H          1.6548567421       -1.7200618242       -1.1182408804
 H          4.0815147335       -2.0875744048       -1.0316052135
 H         -1.3741230666        3.0949718469       -0.3504570144
 H         -3.7884810317        2.5209011333       -0.1258665287
 H         -4.2996991534        0.8735834318       -0.0059931618
  23
        -42.86583198
 C          4.5360897638       -0.2209771497        0.0403912534
 C          3.9831918493        1.0483800962        0.0865122020
 C          2.6130850218        1.2150040769        0.0816089259
 C          1.7644525987        0.1073175563        0.0305775251
 C          2.3219454691       -1.1666637805       -0.0152840322
 C          3.6982507544       -1.3194644766       -0.0102941494
 N          0.3591822046        0.3427382289        0.0264035520
 C         -0.6101939148       -0.6813573366       -0.0304400807
 O         -0.3310315160       -1.8644166107       -0.0701834544
 C         -1.9672704456       -0.1907422365       -0.0321110828
 C         -2.2996710283        1.1402460311        0.0184191034
 C         -1.1824421940        2.0266113382        0.0801266557
 N          0.0387350133        1.6264507513        0.0820900654
 N         -3.5733793974        1.5952765844       -0.0375142041
 Cl        -3.2027767113       -1.4001873960       -0.0971795697
 H          5.6080260253       -0.3497980875        0.0438280958
 H          4.6226341458        1.9177432834        0.1265057767
 H          2.1867165325        2.2035867872        0.1169530600
 H          1.6929006764       -2.0378054375       -0.0552188012
 H          4.1131194241       -2.3155924885       -0.0469706092
 H         -1.3244855859        3.0955136587        0.1273279373
 H         -3.7689413124        2.5486923478        0.2084504663
 H         -4.3082532828        0.9126571816        0.0517926758
