! r2scan-3c def2/J RI DEFGRID2 scfconv6 printgap
%output
    printlevel normal
end
* xyz 0 1
C -1.0017442679 -1.8089788713 7.09259e-05
C 0.3649720891 -1.6113825275 3.4983e-05
C 0.8749349073 -0.3125483485 -0.0001069208
C 0.008606941 0.7762719181 -0.0001643435
C -1.3657123658 0.5733633188 -5.18015e-05
C -1.8659903453 -0.7264772857 5.38315e-05
O -2.177093304 1.6589660383 4.62939e-05
C 2.3259387007 -0.084495181 -0.000171537
O 2.8656763164 0.9914934533 0.0002461401
H -1.4055124229 -2.8102885623 0.000267547
H 1.0401035529 -2.4539010108 4.11019e-05
H 0.4062366208 1.7787857141 -0.0001241104
H -2.9361021989 -0.8882344295 0.0002230397
H -3.10289606 1.3863137438 -9.14606e-05
H 2.9207481264 -1.0206734212 -0.0009677054
*
