! r2scan-3c def2/J RI DEFGRID2 scfconv6 printgap
%output
    printlevel normal
end
* xyz 0 1
C -2.6337296759 -0.6871164929 -0.74956077
C -1.8774005215 -0.4521995201 0.5599001401
C -0.4034879379 -0.2950350224 0.3017101817
C 0.3922464159 -1.4327054338 0.2549486694
C 1.7455183582 -1.3548724103 -0.0166375634
C 2.3233984085 -0.1195041918 -0.2460796262
C 1.5406055182 1.0195721816 -0.2008453124
C 0.1792766977 0.952875452 0.0675260171
C -0.6272184512 2.2178074215 0.1141227843
H -2.2681259397 -1.5870625456 -1.2389932101
H -2.4931177606 0.1484902898 -1.4313173963
H -3.6985163797 -0.8030924057 -0.5592884867
H -2.0380572042 -1.3093690249 1.2178328435
H -2.2781116414 0.4313048556 1.0574301625
H -0.0612298589 -2.3972608598 0.4374823391
H 2.345088889 -2.2528644203 -0.0476203633
H 3.3796421322 -0.0416813652 -0.4585453742
H 1.9954664937 1.9841635612 -0.3793474853
H -0.0098887375 3.0717280403 -0.1542724844
H -1.4692175061 2.1725520724 -0.5740601748
H -1.0212923831 2.3846585776 1.116759581
*
