! pbe def2-sv(p) def2/J RI DEFGRID1 loosescf d4 GCP(DFT/SV(P)) printgap
%output
    printlevel normal
end
* xyz 0 1
C -2.3732147614 -0.8679539223 0.4545578335
C -0.9219707499 -0.4094181893 0.6412321377
H -0.645631065 -0.4918995912 1.7040727607
C -0.7357135391 1.0535098933 0.1850507634
H -1.4860158159 1.2990210987 -0.5733112903
C 0.6603201742 1.2433559011 -0.4510681423
H 0.9361185205 2.3020671949 -0.3193331114
C 1.6645150064 0.3410956629 0.2896003504
H 2.6743375829 0.4576162499 -0.1313127829
C 1.260868412 -1.1367418388 0.0500364623
H 1.6144117328 -1.7307894703 0.9083627999
O -0.1221543293 -1.2901920071 -0.124527979
O 1.8782307596 -1.636962795 -1.0823674997
O 1.6670746379 0.6089953658 1.6751212867
O 0.6000213269 0.9095888218 -1.8173308718
O -0.9276790343 1.9459583625 1.2472064028
O -2.7674438606 -0.7987418264 -0.8860957731
H -3.0376509649 -0.2086858026 1.0165885896
H -2.4672101349 -1.8942775461 0.8366214431
H 1.3653422945 -1.3175217337 -1.8400578808
H 2.1474381649 1.4291117281 1.8367848486
H 1.4150919302 1.1885503986 -2.2497650124
H -0.3358394266 1.6840421947 1.9665095995
H -2.0825185546 -1.2360599658 -1.4074252825
*
