! pbe def2-sv(p) def2/J RI DEFGRID1 loosescf d4 GCP(DFT/SV(P)) printgap
%output
    printlevel normal
end
* xyz 0 1
C -2.6269028769 -0.834960454 -0.6379164293
C -1.6738008834 0.0764318218 0.0985553488
O -1.9510475963 0.5626973246 1.1651472547
C -0.3440170908 0.311127737 -0.6029822503
C 0.3937743572 -1.0336810217 -0.7587435548
C 1.8879843697 -0.7888051076 -0.9391191493
C 2.4972369022 -0.2101542197 0.3434837101
C 1.4759636616 0.636844451 1.1111241674
C 0.5208260682 1.3332460444 0.1493547127
H -3.6284935379 -0.7268053736 -0.2296652986
H -2.6326139627 -0.619347972 -1.702644044
H -2.3085661027 -1.8666027984 -0.4993009615
H -0.5722862307 0.7016211938 -1.6009506228
H 0.241648652 -1.6483439777 0.1308333509
H -0.0035261974 -1.5791396575 -1.6161275917
H 2.3882502018 -1.7230030519 -1.2005533676
H 2.0326739296 -0.0962559746 -1.7705529846
H 2.8477229212 -1.0198109779 0.9862501602
H 3.3652004225 0.3988352361 0.0842108145
H 0.8922196441 0.0098974185 1.786554018
H 1.9941240879 1.3774952619 1.7219107143
H -0.1353845256 2.0039288742 0.7065709395
H 1.0943606991 1.9322871004 -0.5599411921
*
