  16
        -25.53116285
 C         -2.5821948316        0.0114571867       -0.0187876296
 C         -1.8847621793        1.1888296125        0.1959412099
 C         -0.5012276152        1.1872388253        0.2082109619
 C          0.1957561891       -0.0006416197        0.0097959810
 C         -0.5119002920       -1.1834877261       -0.1828308613
 C         -1.8938090992       -1.1762936916       -0.2047029369
 C          1.6862217578       -0.0748897898        0.0279797017
 O          2.2910718125       -1.0619012499        0.3900154913
 N          2.3278749920        1.0460366720       -0.3904080194
 H         -3.6621409079        0.0194975727       -0.0320343805
 H         -2.4214455516        2.1123509359        0.3575943335
 H          0.0291953444        2.1083657213        0.4039962042
 H          0.0436171338       -2.0998299642       -0.3137875942
 H         -2.4359028009       -2.0969057817       -0.3619749233
 H          1.8411237462        1.8174833899       -0.8084050782
 H          3.3331876371        1.0284449073       -0.4353425622
