! r2scan-3c def2/J RI DEFGRID2 scfconv6 printgap
%output
    printlevel normal
end
* xyz 0 1
C -2.5096734952 -0.9784715032 0.4125651664
C -1.0807588077 -0.4667056273 0.6430651425
H -0.9048211739 -0.3488218781 1.7245314993
C -0.8233897064 0.8778654516 -0.0585098487
H -0.9625579235 0.7419756314 -1.141064933
C 0.6273491619 1.2840737673 0.2066594139
H 0.7506520212 1.4345708428 1.2923903778
C 1.5910159249 0.1824849647 -0.2521372651
H 1.571510156 0.1263678235 -1.3506123422
C 1.1655933706 -1.1848614724 0.3011469819
H 1.3905129862 -1.198861899 1.3877088963
O -0.2114681841 -1.444750844 0.1110549908
O 1.8599968538 -2.1614649511 -0.3782168536
O 2.8855275096 0.4433057356 0.2121286783
O 0.9703613786 2.4627326251 -0.4798088589
O -1.6476683417 1.9146118664 0.4205906252
O -2.8462116417 -1.0034434217 -0.9468404853
H -3.2274456981 -0.3183274698 0.9044781893
H -2.5904965511 -1.9793464227 0.8566112043
H 1.5470957307 -3.0267305164 -0.0876396809
H 3.1267467141 1.3240216127 -0.1022141642
H 0.2728139972 3.1065057186 -0.3044706519
H -2.5510350004 1.744749487 0.13156541
H -2.1915075993 -1.5517471177 -1.3968299654
*
