! r2scan-3c def2/J RI DEFGRID2 scfconv6 printgap
%output
    printlevel normal
end
* xyz 0 1
C -1.3988410804 -0.5831944751 -2.74922e-05
S 0.0018775252 0.5866015735 -3.58673e-05
C 1.3935146027 -0.5806232049 -3.11182e-05
H -1.9880201049 -0.424945031 -0.8982115493
H -2.0078930626 -0.3976840328 0.8794586622
H -1.0106901403 -1.594721141 0.0202060817
H 1.3560166047 -1.1942767121 0.8957116477
H 2.2986548598 0.0174147399 -0.0006309207
H 1.3556850599 -1.1957791838 -0.8946945786
*
