! pbe def2-sv(p) def2/J RI DEFGRID1 loosescf d4 GCP(DFT/SV(P)) printgap
%output
    printlevel normal
end
* xyz 0 1
C -2.8540687388 0.7965209709 -0.9908889743
C -2.3664233455 -0.0172197226 0.2068161751
H -3.2554437453 -0.3973646804 0.7225821265
C -1.5697042471 0.8295040835 1.1998972778
C -0.3186069604 1.4281775435 0.562684344
C 0.4488340655 0.4192297512 -0.3189852717
H 0.1544712482 0.5933709752 -1.3623783344
C -0.0080486117 -1.0005093286 -0.0512116761
O 0.7239517737 -1.9258419145 0.1980442931
C -1.5010053153 -1.2163304527 -0.2077360174
C 1.9739887946 0.6374692723 -0.2453486965
C 2.5781395345 0.2219217796 1.0946711238
C 2.6775348109 -0.0996011251 -1.3841751476
H -2.0288338235 1.1427903416 -1.6060376068
H -3.5100232952 0.1908379432 -1.6128307241
H -3.416121453 1.6638828689 -0.6511264275
H -2.1941163721 1.6320122402 1.5973991795
H -1.277325166 0.1883007604 2.0354336549
H -0.5901550497 2.2972602291 -0.0388190659
H 0.3374588685 1.7842799343 1.3573911268
H -1.6719298217 -1.4640705707 -1.2590721251
H -1.7599443177 -2.1045550606 0.3722424934
H 2.1408454105 1.7147685644 -0.3802671082
H 3.6336748669 0.4836985165 1.1185571938
H 2.4847232114 -0.8506487285 1.2319561861
H 2.0880494826 0.7214731757 1.9272284977
H 3.745888642 0.101778996 -1.3585530128
H 2.2932475901 0.2203102181 -2.3513882863
H 2.5277453644 -1.1710564977 -1.2859138243
*
