  20
        -28.41866294
 C         -3.6480400514       -0.0348380733       -0.0101707950
 C         -2.1517815902       -0.0213165530        0.0075259431
 C         -1.4254552518       -1.2070725069        0.0046851619
 C         -0.0440715622       -1.1996250951        0.0015702833
 C          0.6530924191        0.0074766323        0.0007866956
 C         -0.0770260811        1.1979579256        0.0030965887
 C         -1.4552296787        1.1834797443        0.0065417725
 C          2.1331976300        0.1012232767       -0.0018035370
 O          2.6993294452        1.1727593884       -0.0045526448
 C          2.9067015355       -1.1963151789       -0.0012375431
 H         -4.0352395196       -0.9863086865        0.3459754647
 H         -4.0488974716        0.7658935929        0.6075511005
 H         -4.0068392315        0.1183101869       -1.0285942443
 H         -1.9522697768       -2.1509785080        0.0061317620
 H          0.4832794733       -2.1408568188        0.0008603436
 H          0.4681171575        2.1301612851        0.0034091701
 H         -2.0036197248        2.1145790444        0.0094651257
 H          2.6606525664       -1.7788479860        0.8838586892
 H          3.9713898541       -0.9769011175       -0.0024007797
 H          2.6591750456       -1.7802670761       -0.8850086868
  20
        -28.41620019
 C         -3.6485734608       -0.0327493074       -0.0522355932
 C         -2.1527080591       -0.0189716766       -0.0034095101
 C         -1.4352250299       -1.1868820200        0.2280374072
 C         -0.0534757753       -1.1865457046        0.2377620867
 C          0.6507485912       -0.0038325881        0.0268368549
 C         -0.0690919644        1.1744620473       -0.1754484004
 C         -1.4478208380        1.1638509105       -0.2024042591
 C          2.1325414895        0.0871858028        0.0386492997
 O          2.6933590798        1.1023916663        0.3882694679
 C          2.9150094612       -1.1055889836       -0.4589698533
 H         -4.0502369756       -0.8762587462        0.5039940037
 H         -4.0577067866        0.8890794982        0.3549825679
 H         -3.9832940151       -0.1188688288       -1.0867001087
 H         -1.9679005715       -2.1105736811        0.4050442937
 H          0.4689054195       -2.1078983030        0.4478585815
 H          0.4792422197        2.0937543323       -0.3181561512
 H         -1.9889558977        2.0834523674       -0.3730695838
 H          3.7582135559       -1.2887371379        0.2034175758
 H          3.3193894958       -0.8458756472       -1.4370191768
 H          2.3126623534       -2.0007876163       -0.5595859657
