! pbe def2-sv(p) def2/J RI DEFGRID1 loosescf d4 GCP(DFT/SV(P)) printgap
%output
    printlevel normal
end
* xyz 0 1
C -1.9171512603 0.5357197678 -0.2530654632
C -1.3088859299 -0.3769839659 0.4820523978
C 0.0293448434 -0.9582033496 0.1555032144
Cl 1.2452105316 0.3278949648 -0.1436169273
H -2.8813763071 0.9299182423 0.0156044778
H -1.4641880145 0.9344018787 -1.1456779318
H -1.7697814578 -0.7533558775 1.3849258416
H 0.4160589191 -1.5639226197 0.9734180811
H -0.006613724 -1.5536449299 -0.7584423669
*
