! r2scan-3c def2/J RI DEFGRID2 scfconv6 printgap
%output
    printlevel normal
end
* xyz 0 1
C -0.6110628771 0.0111860443 0.4650710593
C 0.6110935907 -0.0118184235 -0.4651550613
O 1.8232114614 0.0132478695 0.2449614842
O -1.8232398497 -0.0127193728 -0.2449751354
H -0.5500835008 0.8916874804 1.1205039963
H -0.6194584698 -0.8861712375 1.0912835833
H 0.6191703383 0.884963133 -1.0921509478
H 0.5505757148 -0.8929616603 -1.11987479
H 1.8739097363 -0.7681335288 0.8067441986
H -1.8740291919 0.7697624311 -0.8052883025
*
