! pbe def2-sv(p) def2/J RI DEFGRID1 loosescf d4 GCP(DFT/SV(P)) printgap
%output
    printlevel normal
end
* xyz 0 1
C -2.0494953978 -1.2236187216 -0.2382891828
C -1.2499794386 -0.3635677769 0.7630099252
H -1.8734319041 -0.2439723375 1.6564866795
C -0.9471237645 1.0449637417 0.1893090694
H -1.2704247382 1.0964413448 -0.855357462
C 0.5640241559 1.2969301121 0.2406150914
H 0.8851850105 1.3578147192 1.2948215592
C 1.280109277 0.1018988388 -0.4164518685
H 0.8728505296 -0.0466810374 -1.4238956987
C 1.0087862498 -1.1527126979 0.4230585521
H 1.8680495442 -1.311709739 1.0912800178
O -0.0888094397 -1.0180159383 1.2759105796
O 0.8664575264 -2.2421460889 -0.4508754767
O 2.6750149419 0.3020891677 -0.4661708238
O 0.8569867928 2.4956539742 -0.4299815924
O -1.6811374819 2.0360921212 0.8511503244
O -1.5047491868 -1.274424529 -1.5255749819
H -3.0384706092 -0.7725182919 -0.345882255
H -2.1635339489 -2.2318904662 0.1852115847
H 0.7654307674 -3.0502920057 0.0672315675
H 2.8837203586 0.8308220227 -1.2441183483
H 1.7908876573 2.6975656376 -0.298070149
H -1.3021938608 2.1850429471 1.7257167108
H -0.6484078281 -1.7322365898 -1.4737919034
*
