! r2scan-3c def2/J RI DEFGRID2 scfconv6 printgap
%output
    printlevel normal
end
* xyz 0 1
C 0.390337794 -1.8724752292 -0.2013653656
C 0.5678823646 -0.4815932062 -0.7810046728
H 1.1010953092 -0.5250636645 -1.7357561723
C -0.7453063343 0.2514250154 -1.0024312714
Cl -1.6861111494 0.3946469372 0.5045552494
Cl 1.608258784 0.4940688953 0.3099462266
H 1.3573166721 -2.3458396172 -0.0540986518
H -0.1234751394 -1.8196930838 0.7550789974
H -0.1991159414 -2.4801713203 -0.8848900238
H -0.5709135939 1.2646505843 -1.3642483044
H -1.3637048362 -0.2976653101 -1.713677171
*
