! pbe def2-sv(p) def2/J RI DEFGRID1 loosescf d4 GCP(DFT/SV(P)) printgap
%output
    printlevel normal
end
* xyz 0 1
C -2.8067920375 -0.1537585026 -0.8496325614
C -1.6261127225 -0.0849862722 0.086250845
O -1.6744038504 -0.4878004918 1.2209981359
C -0.3657568891 0.5048527637 -0.5254096569
C 0.4555098161 -0.6726820982 -1.0978227276
C 1.3575030363 -1.2529879645 -0.0165126428
C 2.4455179354 -0.244497178 0.3710951725
C 1.9417893752 1.1966732176 0.2304638191
C 0.4489456145 1.271796095 0.5260627807
H -3.2163717492 0.8496387174 -0.9583671486
H -2.5015811068 -0.501747776 -1.8331413066
H -3.576394113 -0.8045885775 -0.443030024
H -0.6482370197 1.167392854 -1.3484856524
H -0.2171875974 -1.4437582 -1.4805695954
H 1.0644370587 -0.321754915 -1.9329747463
H 0.7426777194 -1.4966732757 0.8510491467
H 1.8156649541 -2.1794019568 -0.3670509088
H 2.753349384 -0.4300531667 1.4011954102
H 3.3241081237 -0.3816188934 -0.262667048
H 2.4878939325 1.8486857173 0.9139472845
H 2.1232280083 1.5626035545 -0.782594942
H 0.2540204209 0.835972393 1.5078000897
H 0.1204866178 2.3126524152 0.5527807362
*
