! pbe def2-sv(p) def2/J RI DEFGRID1 loosescf d4 GCP(DFT/SV(P)) printgap
%output
    printlevel normal
end
* xyz 0 1
C -1.8418321202 1.4421062909 -0.0001276136
C -0.5330797954 0.7176979519 -4.79629e-05
C 0.6718122413 1.4056807196 0.0001222663
C 1.8665830563 0.7033766965 0.0001331776
C 1.8046305313 -0.6792164328 -6.50619e-05
N 0.6659726644 -1.3495160606 -0.0001351786
C -0.4785489846 -0.6829408905 -8.73525e-05
C -1.7244341961 -1.5118312536 0.000193002
H -1.6855921513 2.5183040548 -2.95227e-05
H -2.4267151839 1.174770152 -0.8797650534
H -2.4269572888 1.1746275952 0.8793069718
H 0.6743406736 2.4875187516 0.0002233681
H 2.8153529583 1.2173025278 0.0001830112
H 2.7015999351 -1.284926623 -0.0003503858
H -2.3274565312 -1.2964854684 -0.8807060201
H -1.4533806039 -2.563205552 0.0002980796
H -2.3272534669 -1.2962991112 0.881282672
*
