! pbe def2-sv(p) def2/J RI DEFGRID1 loosescf d4 GCP(DFT/SV(P)) printgap
%output
    printlevel normal
end
* xyz 0 1
C -2.0113718848 -0.5991810783 -0.712382303
C -1.2130225603 -0.096910964 0.5175025739
H -1.8984740067 -0.0722292174 1.3756719178
C -0.6435058971 1.3140431248 0.2979096191
H -1.3812549486 1.9032007853 -0.2685312042
C 0.6711656108 1.3036574108 -0.5035556721
H 1.1092495786 2.3064347902 -0.4001718789
C 1.6598632015 0.2794001352 0.0905611385
H 2.5174214208 0.1622695726 -0.5848641972
C 0.9649462385 -1.0959519329 0.2007300512
H 1.5940325637 -1.7771697117 0.7858199579
O -0.2245126916 -1.0187770511 0.9464196687
O 0.788537346 -1.6855072992 -1.0485335117
O 2.1784539499 0.7109174484 1.3121354109
O 0.3803867091 1.015968716 -1.8580928185
O -0.3419229196 1.9450263372 1.5252115572
O -2.224071852 -1.9783537972 -0.664373785
H -1.5045907849 -0.3061271836 -1.6419915514
H -2.9986780779 -0.1302381437 -0.7041272508
H 0.4512051647 -1.017597681 -1.6670904951
H 1.4399087583 1.0015197824 1.8687844855
H 1.1367973764 1.2683544371 -2.3994509969
H -1.1255105029 1.9413293676 2.0866185101
H -1.3643151632 -2.4042949387 -0.5263890906
*
