  14
        -20.78784648
 C         -2.1827660945        0.1342164001       -0.6602370023
 C         -1.4011390607       -0.2779053537        0.5788705961
 O         -0.1048562863       -0.7728060681        0.2384523232
 C          0.8643145512        0.1289195429        0.0459036765
 O          0.7155943158        1.3151307574        0.1718558307
 C          2.1514453998       -0.5461585856       -0.3505276925
 H         -2.2556989170       -0.6997109737       -1.3543131613
 H         -3.1826076038        0.4466158885       -0.3730696676
 H         -1.6831685423        0.9639159104       -1.1542575597
 H         -1.8923087117       -1.1030141166        1.0987336615
 H         -1.2868785485        0.5757446102        1.2550483205
 H          2.2097829014       -0.5671054102       -1.4372468352
 H          2.1722309635       -1.5648500315        0.0231194377
 H          2.9943008239        0.0240431038        0.0285486414
  14
        -20.78780736
 C         -2.1947289262        0.1583988039        0.6365755560
 C         -1.3958894678       -0.2973926937       -0.5760089410
 O         -0.1046638655       -0.7792833933       -0.1995854851
 C          0.8635875787        0.1287014964       -0.0325472528
 O          0.7128701810        1.3109359772       -0.1891221499
 C          2.1600316831       -0.5385274366        0.3466248474
 H         -3.1902577338        0.4605593187        0.3244908202
 H         -2.2779143734       -0.6505582293        1.3584769510
 H         -1.7013377030        1.0047174934        1.1081142523
 H         -1.2727700517        0.5317017010       -1.2805978546
 H         -1.8797841767       -1.1408858198       -1.0728299013
 H          2.8102588560        0.1786801526        0.8380106603
 H          2.6466080138       -0.8922766563       -0.5603786079
 H          1.9673803735       -1.3911813110        0.9904754971
  14
        -20.78700084
 C         -2.5650130307       -0.5845054786       -0.2716949680
 C         -1.3766757494        0.2742758283        0.1169701364
 O         -0.1792050288       -0.4467403200       -0.1828355157
 C          0.9743838333        0.1761289598        0.0733169550
 O          1.0440966301        1.2888302822        0.5241811182
 C          2.1511727300       -0.7028007285       -0.2616951364
 H         -3.4865492531       -0.0540848638       -0.0504809320
 H         -2.5312291133       -0.8117363618       -1.3337598442
 H         -2.5494257102       -1.5183158082        0.2837407776
 H         -1.3869996314        0.5106732503        1.1869474849
 H         -1.3666558185        1.2190673572       -0.4379805662
 H          2.5152951000       -1.1593273603        0.6567795413
 H          2.9494900491       -0.0972653864       -0.6809380801
 H          1.8525198281       -1.4831086523       -0.9541174338
  14
        -20.78695290
 C         -2.5407769761       -0.4908891478       -0.4423427423
 C         -1.3845227567        0.1886465264        0.2678079267
 O         -0.1759065807       -0.4972668612       -0.0671755801
 C          0.9700138010        0.1714778004        0.0901372807
 O          1.0369805996        1.2979125270        0.5052946944
 C          2.1442091702       -0.6687176194       -0.3400938963
 H         -2.4006040301       -0.4442576088       -1.5189911317
 H         -2.6004187074       -1.5343109796       -0.1448666353
 H         -3.4706191292        0.0069699845       -0.1833944458
 H         -1.5140619184        0.1518906410        1.3554664015
 H         -1.2889717644        1.2382770054       -0.0306497357
 H          2.2369952224       -0.6081843699       -1.4227340034
 H          1.9816390993       -1.7063941127       -0.0651900155
 H          3.0528418264       -0.2861184238        0.1142623560
  14
        -20.78695884
 C         -2.5590516505       -0.6256349460       -0.1543075845
 C         -1.3771578813        0.3111854539        0.0092837714
 O         -0.1772417458       -0.4255741970       -0.2370893481
 C          0.9739276877        0.1794659930        0.0697670075
 O          1.0430307280        1.2908184641        0.5234062786
 C          2.1473060273       -0.7214150262       -0.2149076355
 H         -3.4825764029       -0.0812600388        0.0202359216
 H         -2.5729737407       -1.0382091909       -1.1596044718
 H         -2.4892516254       -1.4449527414        0.5561614323
 H         -1.3329590210        0.7302451236        1.0206518527
 H         -1.4292880683        1.1440120799       -0.7011502037
 H          2.1927908213       -1.4919038030        0.5519574436
 H          3.0649552958       -0.1419776935       -0.1968428801
 H          2.0177225177       -1.2052586668       -1.1785546410
