! r2scan-3c def2/J RI DEFGRID2 scfconv6 printgap
%output
    printlevel normal
end
* xyz 0 1
C -0.1891439926 -2.3104373679 -0.2867316704
C 0.4976160635 -0.9976900422 -0.1204496111
C 1.8903370106 -0.959072826 -0.10866804
C 2.5918777217 0.2216017637 0.0410926544
C 1.9119685985 1.4222259432 0.1855352415
C 0.5347554281 1.4190746899 0.1775795963
C -0.1718442077 0.2257715514 0.0269624149
N -1.6089224902 0.3287289634 0.0323634248
O -2.2725475487 -0.681676272 -0.0754059922
O -2.0897583623 1.4389024251 0.1465737903
H -0.8284639678 -2.5227680221 0.5686732504
H -0.8366411159 -2.3006227072 -1.1620314901
H 0.5422887365 -3.1079215312 -0.3923267814
H 2.4324949213 -1.8863551104 -0.2206034729
H 3.6713103166 0.2068598711 0.045172433
H 2.4519100231 2.3484236947 0.3030339921
H -0.0259625753 2.3348187267 0.2877254801
*
