! pbe def2-sv(p) def2/J RI DEFGRID1 loosescf d4 GCP(DFT/SV(P)) printgap
%output
    printlevel normal
end
* xyz 0 1
C 1.328898776 1.2337382227 0.211220931
C 0.4943314556 0.1169697951 -0.418734329
C 0.9119189081 -1.2612657271 0.0820713971
C -0.9698856017 0.3719263288 -0.1690289577
O -1.7657324189 -0.427886387 0.2323360629
H 2.3808151658 1.090847087 -0.0228285325
H 1.2136126333 1.2254553192 1.2927950557
H 1.0209153448 2.207552407 -0.1631412315
H 0.6219910592 0.1640538277 -1.5088084996
H 0.807848128 -1.3128287942 1.1632052024
H 1.9463643502 -1.4668229391 -0.1809969156
H 0.2769438428 -2.0271121716 -0.3556568671
H -1.275655016 1.4130580341 -0.4035015608
*
