  13
        -16.68654514
 C          1.2077894172        1.2598213853        0.0518429467
 C          0.4351507634       -0.0000312181       -0.3427224071
 C          1.2090077048       -1.2591449032        0.0516801464
 C         -0.8913529354       -0.0005316973        0.3684217789
 O         -1.9679697655       -0.0001571102       -0.1564173137
 H          0.6577252982        2.1529300092       -0.2352144498
 H          2.1742897521        1.2738751688       -0.4460558814
 H          1.3726962824        1.2840449977        1.1271327857
 H          0.2548377374       -0.0000149990       -1.4217451467
 H          0.6598004079       -2.1527343881       -0.2355130919
 H          1.3738658132       -1.2833755576        1.1269735236
 H          2.1755604617       -1.2722168355       -0.4461613562
 H         -0.7933620003       -0.0013677873        1.4736257262
  13
        -16.68616037
 C          1.3288987760        1.2337382227        0.2112209310
 C          0.4943314556        0.1169697951       -0.4187343290
 C          0.9119189081       -1.2612657271        0.0820713971
 C         -0.9698856017        0.3719263288       -0.1690289577
 O         -1.7657324189       -0.4278863870        0.2323360629
 H          2.3808151658        1.0908470870       -0.0228285325
 H          1.2136126333        1.2254553192        1.2927950557
 H          1.0209153448        2.2075524070       -0.1631412315
 H          0.6219910592        0.1640538277       -1.5088084996
 H          0.8078481280       -1.3128287942        1.1632052024
 H          1.9463643502       -1.4668229391       -0.1809969156
 H          0.2769438428       -2.0271121716       -0.3556568671
 H         -1.2756550160        1.4130580341       -0.4035015608
  13
        -16.68521485
 C          0.9578758682        1.2548028882        0.0235860015
 C          0.4518358132       -0.1418910516       -0.3531701890
 C          1.3967416973       -1.2355037830        0.1294516990
 C         -0.9436512463       -0.3240770206        0.1939479496
 O         -1.8676593502        0.4065278524       -0.0269552117
 H          0.2406353793        2.0081012502       -0.2917797023
 H          1.9126088812        1.4531310821       -0.4568664145
 H          1.0888804768        1.3296605531        1.1011469679
 H          0.3668200911       -0.1860255964       -1.4461362013
 H          2.3833312355       -1.1009588277       -0.3069524867
 H          1.0281705423       -2.2185328004       -0.1551434738
 H          1.4954247632       -1.2022795516        1.2125218838
 H         -1.0674016847       -1.2134272530        0.8447965993
  13
        -16.68385170
 C          1.0371771824        1.2581414849        0.2176543093
 C          0.5471956756        0.0002432093       -0.5047576465
 C          1.0372042973       -1.2576575314        0.2174450725
 C         -0.9652354351        0.0006710218       -0.5080739702
 O         -1.6482861825       -0.0014546443        0.4760049339
 H          2.1229789024        1.2593556472        0.2736676777
 H          0.6319353349        1.2849515057        1.2261557224
 H          0.7148992803        2.1534602792       -0.3096438726
 H          0.9149096822        0.0003520051       -1.5346989763
 H          2.1230074984       -1.2583081049        0.2744620505
 H          0.7156854724       -2.1528260659       -0.3106264194
 H          0.6308998587       -1.2849686534        1.2255058778
 H         -1.4278158361        0.0044124399       -1.5161698791
