  17
        -22.49446529
 C         -1.8418321202        1.4421062909       -0.0001276136
 C         -0.5330797954        0.7176979519       -0.0000479629
 C          0.6718122413        1.4056807196        0.0001222663
 C          1.8665830563        0.7033766965        0.0001331776
 C          1.8046305313       -0.6792164328       -0.0000650619
 N          0.6659726644       -1.3495160606       -0.0001351786
 C         -0.4785489846       -0.6829408905       -0.0000873525
 C         -1.7244341961       -1.5118312536        0.0001930020
 H         -1.6855921513        2.5183040548       -0.0000295227
 H         -2.4267151839        1.1747701520       -0.8797650534
 H         -2.4269572888        1.1746275952        0.8793069718
 H          0.6743406736        2.4875187516        0.0002233681
 H          2.8153529583        1.2173025278        0.0001830112
 H          2.7015999351       -1.2849266230       -0.0003503858
 H         -2.3274565312       -1.2964854684       -0.8807060201
 H         -1.4533806039       -2.5632055520        0.0002980796
 H         -2.3272534669       -1.2962991112        0.8812826720
  17
        -22.49282238
 C         -1.8282912129        1.4823599045       -0.0006514172
 C         -0.5424143520        0.7111643399        0.0003859876
 C          0.6648617092        1.4005501667        0.0004942424
 C          1.8615000027        0.7052573835        0.0001473812
 C          1.8016701195       -0.6782739269       -0.0001997856
 N          0.6644725101       -1.3479234929       -0.0003879426
 C         -0.4859662818       -0.6874135264       -0.0000059216
 C         -1.7148797522       -1.5463726015        0.0005078336
 H         -1.8842922072        2.1098347666       -0.8899473187
 H         -2.6944593804        0.8297285491        0.0164038740
 H         -1.8697556768        2.1372070667        0.8693019565
 H          0.6603601506        2.4823648524        0.0008198291
 H          2.8086403709        1.2222161715       -0.0000973717
 H          2.6991455591       -1.2833347437       -0.0013952088
 H         -2.3223347700       -1.3532158691       -0.8822549921
 H         -1.4099624873       -2.5887661429       -0.0014684702
 H         -2.3194689302       -1.3559759926        0.8859454619
  17
        -22.49242726
 C         -1.8342212555        1.4750015995        0.0002483654
 C         -0.5400166957        0.7191720108       -0.0000760201
 C          0.6695256334        1.4030402738       -0.0001984429
 C          1.8643816701        0.7035641753       -0.0000564769
 C          1.8001323078       -0.6794987973        0.0002671394
 N          0.6609534484       -1.3446785738        0.0000360972
 C         -0.4875825459       -0.6806368567       -0.0002383859
 C         -1.7118032038       -1.5463971417       -0.0000737443
 H         -2.4259196819        1.2271230637        0.8806925106
 H         -1.6456549423        2.5462158437        0.0043015861
 H         -2.4223958477        1.2333618848       -0.8843366713
 H          0.6729799623        2.4849018367       -0.0002384946
 H          2.8129371142        1.2177878399       -0.0003187011
 H          2.6955083346       -1.2877303466        0.0000988615
 H         -1.6895899032       -2.1985310683       -0.8710344800
 H         -1.6998147289       -2.1840528188        0.8818421436
 H         -2.6281744920       -0.9672144275       -0.0099882187
