! pbe def2-sv(p) def2/J RI DEFGRID1 loosescf d4 GCP(DFT/SV(P)) printgap
%output
    printlevel normal
end
* xyz 0 1
C -2.7726206656 0.40310857 0.0002637468
O -1.7901732751 -0.6026413444 -0.0002646629
C -0.4777224313 -0.2326311979 -8.72576e-05
C -0.0194831099 1.0795830183 -0.0001270399
C 1.3431029485 1.3324266599 -2.86456e-05
C 2.256119679 0.295444616 5.33564e-05
C 1.7993239176 -1.0138997282 7.21117e-05
C 0.4462704512 -1.278835248 5.92375e-05
H -2.7057480781 1.0324761161 -0.8933853125
H -2.704728328 1.0326202177 0.8937806158
H -3.7285984467 -0.1184744932 0.0009127488
H -0.7081592994 1.9100566304 -0.0002029038
H 1.6873866213 2.3565638184 0.0001312612
H 3.3154066871 0.5027741963 0.0001280434
H 2.503462423 -1.8327598936 0.0002359289
H 0.0723842395 -2.2906358149 0.0001518519
*
