! pbe def2-sv(p) def2/J RI DEFGRID1 loosescf d4 GCP(DFT/SV(P)) printgap
%output
    printlevel normal
end
* xyz 0 1
C 8.35858e-05 0.9857531139 -3.026e-06
Br -1.6105840008 -0.0942076328 -4.444e-07
Br 1.6105708829 -0.0942166383 -8.387e-07
H 4.98792e-05 1.5952750379 0.9008994997
H -6.0094e-06 1.5954902177 -0.9007617243
*
