! r2scan-3c def2/J RI DEFGRID2 scfconv6 printgap
%output
    printlevel normal
end
* xyz 0 1
C -2.2004594304 -0.9028540229 -0.1476982216
C -1.1313952943 -0.3256363946 0.8040248877
H -1.5911440068 -0.313113441 1.8013818617
C -0.7353614468 1.1360535621 0.4955606121
H -1.6014112611 1.6517070229 0.0634585082
C 0.4446345812 1.2443642763 -0.4879250969
H 0.785750986 2.2912807545 -0.4783503373
C 1.6022538653 0.3427367179 0.0016363579
H 2.4029978302 0.349756973 -0.7537156996
C 1.0883886527 -1.0996238785 0.1217307898
H 1.8379851399 -1.7216366389 0.6278353771
O -0.0244526953 -1.2086892258 0.9618978634
O 0.8741610062 -1.6445507714 -1.152639414
O 2.0944892652 0.7435755024 1.2580905936
O 0.1089877874 0.9243553598 -1.8168632006
O -0.4404877929 1.8243630986 1.6829268292
O -1.792246514 -0.9969913247 -1.4904970246
H -3.0753997392 -0.2490411239 -0.1340758941
H -2.488328666 -1.8902685541 0.2302551929
H 0.8051856067 -0.9178664202 -1.7978291449
H 2.5051092012 1.6123348894 1.1723736925
H -0.7416178567 0.4345061623 -1.8361942647
H 0.3193451482 1.383982547 2.0962349566
H -1.0765242113 -1.6573843561 -1.5307106643
*
