! pbe def2-sv(p) def2/J RI DEFGRID1 loosescf d4 GCP(DFT/SV(P)) printgap
%output
    printlevel normal
end
* xyz 0 1
C -2.5437415035 -0.7017969916 -0.3741688213
C -1.1698635469 -0.329738813 0.1749549515
H -1.2415039462 -0.2776971276 1.2717034591
C -0.6991271641 1.031503653 -0.3586732728
H -0.6483806466 0.9844010026 -1.4591344759
C 0.7103899216 1.3210891479 0.1713522005
H 0.6702145399 1.411781115 1.2697550379
C 1.6440580782 0.163340528 -0.1820113689
H 1.7367887999 0.0892898846 -1.2771106773
C 1.0278211909 -1.1490204203 0.3285781518
H 0.9772394028 -1.1101429667 1.4393533289
O -0.2546581276 -1.3395484058 -0.198562385
O 1.8331553354 -2.2020052574 -0.0848898997
O 2.8982435354 0.4088914381 0.4033476934
O 1.1472836482 2.5353432026 -0.3899893061
O -1.6001992627 2.0263542184 0.0440029817
O -3.09759927 -1.7053888059 0.442796641
H -2.4206443826 -1.0549365137 -1.405798526
H -3.1639571551 0.2028104592 -0.3634663257
H 1.2738669891 -2.9853561483 -0.1481402208
H 3.4213802876 -0.3974093272 0.3198258519
H 2.0898798224 2.6139850062 -0.1995401877
H -1.1650319417 2.8754373061 -0.1101073939
H -3.9528764991 -1.9619676775 0.0823406315
*
