! pbe def2-sv(p) def2/J RI DEFGRID1 loosescf d4 GCP(DFT/SV(P)) printgap
%output
    printlevel normal
end
* xyz 0 1
C -3.2068145228 0.29648142 0.9753114631
C -1.7308673617 0.2233223274 0.59185495
H -1.1481873156 0.1587012848 1.5164351488
C -1.305636251 1.4755310716 -0.1909147368
C -0.1797554003 1.1969162273 -1.1947916275
C 0.7867650287 0.1058035482 -0.7277425955
H 1.5307539488 -0.0782377836 -1.5120660144
C 0.015526011 -1.1921863477 -0.5667402362
O 0.517969327 -2.2732530965 -0.7531716618
C -1.4467731433 -1.0357069384 -0.2231166168
C 1.5747526546 0.4982144586 0.5467308319
C 2.1796167143 -0.7238934769 1.23396157
C 2.6850120238 1.4863483074 0.1912439237
H -3.4055718638 1.2007844695 1.5462313462
H -3.8333290591 0.3067837654 0.0856671274
H -3.4884945827 -0.5606470129 1.5827895696
H -2.1653040071 1.8675909198 -0.7384388929
H -0.9972157748 2.2507243187 0.5125144354
H -0.6123859417 0.8735978503 -2.1445662991
H 0.3660693849 2.1200758408 -1.3934066048
H -1.996780667 -0.9956806613 -1.1684883149
H -1.7812224267 -1.9312006268 0.3047228573
H 0.8938949925 0.9884535272 1.24723448
H 2.8237794384 -0.4108273587 2.0530555946
H 2.7705972946 -1.3038137708 0.5293340939
H 1.4059516514 -1.3730727185 1.637059852
H 3.1979772417 1.8120060082 1.0936551935
H 2.2886125418 2.3673518703 -0.3072043921
H 3.4144749741 1.016844828 -0.4653865987
*
