! pbe def2-sv(p) def2/J RI DEFGRID1 loosescf d4 GCP(DFT/SV(P)) printgap
%output
    printlevel normal
end
* xyz 0 1
C -2.3186420278 -0.9469421056 -0.1826165371
C -1.2185423512 -0.1181302677 0.5423581416
H -1.6452126188 0.3512571164 1.4353518361
C -0.6461906899 1.0025849749 -0.3357583599
H -0.5635959577 0.6714437097 -1.3827017186
C 0.7676042632 1.3332774454 0.1608422102
H 0.7201217734 1.5453233959 1.2440834592
C 1.6868104805 0.1217360346 -0.0679498191
H 2.0440449453 0.1271842779 -1.1024124221
C 0.8769162942 -1.1785821002 0.1425519966
H 1.513086569 -1.9209894082 0.6581056323
O -0.1921638334 -0.9719688555 1.0357888604
O 0.4654296253 -1.6425806211 -1.0958783593
O 2.8325554748 0.1901459072 0.7403967117
O 1.2146026116 2.47740843 -0.5266754873
O -1.4981430434 2.1111343857 -0.2407880858
O -2.0542619948 -2.3295685509 -0.1316940408
H -2.3563026442 -0.6886055572 -1.2419763508
H -3.2945686577 -0.7270975114 0.2647214578
H -0.3129428886 -2.2190776655 -0.9706786657
H 2.5740500629 0.0727205604 1.6627697297
H 2.1649343664 2.5589586826 -0.3864875332
H -1.0079139036 2.8691532363 -0.5866268603
H -1.8735418781 -2.5637866091 0.7883197493
*
