! pbe def2-sv(p) def2/J RI DEFGRID1 loosescf d4 GCP(DFT/SV(P)) printgap
%output
    printlevel normal
end
* xyz 0 1
C -2.3707562423 -0.8591147194 -0.2506546312
O -1.0405729518 -0.6194760138 0.1958580203
C -0.5653879996 0.6154926674 0.1078188123
O -1.1729559999 1.5690346874 -0.2965622981
C 0.8647118272 0.692113244 0.6163897657
Cl 1.8690593297 -0.5636092693 -0.1432604359
H -2.975465005 -1.1493967272 0.6087650861
H -2.3380853312 -1.6735087516 -0.9733059558
H -2.7793259015 0.042666521 -0.7091829284
H 0.8849038001 0.5202703976 1.6933990125
H 1.2861046214 1.6670949386 0.3748319798
*
