! r2scan-3c def2/J RI DEFGRID2 scfconv6 printgap
%output
    printlevel normal
end
* xyz 0 1
C -3.5766461872 0.1272512495 -0.3652344366
O -2.2119415769 0.1698455389 -0.7598731838
C -1.3100065669 -0.0853347908 0.1974440479
O -1.6072107452 -0.343558495 1.3340876769
C 0.1017929783 0.0088009616 -0.3371441072
C 0.8680754468 -1.2737039245 0.0002390653
C 2.3187577943 -1.1687218906 -0.4575839375
C 2.9988112625 0.0339931632 0.1882235005
C 2.2430232068 1.3140522759 -0.1528142585
C 0.7923499862 1.2174275088 0.3075026994
H -4.1600197982 0.3279515366 -1.2600234489
H -3.7731034599 0.8819275634 0.3990583143
H -3.8218193378 -0.8556500041 0.0420525518
H 0.0521197923 0.146047837 -1.4208652774
H 0.8275261842 -1.4279673388 1.0801742412
H 0.3850474571 -2.1275010722 -0.4801578606
H 2.8518322555 -2.0847121471 -0.1958970944
H 2.3494432782 -1.0621885336 -1.5446014475
H 3.0150517306 -0.0985710904 1.2720392474
H 4.0320217948 0.1081506939 -0.1570114376
H 2.7216077668 2.1700607471 0.3268795457
H 2.2713398931 1.4758249201 -1.2329623246
H 0.7543955858 1.1022155312 1.3926846623
H 0.2547045667 2.1312027283 0.0444650333
*
