! r2scan-3c def2/J RI DEFGRID2 scfconv6 printgap
%output
    printlevel normal
end
* xyz 0 1
C -2.3315472546 -0.5733404646 -0.0010380805
O -0.913594219 -0.6225327869 -0.0011819017
C -0.2870622117 0.5664915991 0.000829833
O -0.8735271918 1.6195788516 0.002392797
C 1.1880464081 0.4337205865 0.0006985284
C 1.8414098207 -0.7068307026 0.7421422318
C 1.8416297163 -0.7047182423 -0.7437873851
H -2.6719129974 -1.60576378 -0.0067289537
H -2.6933929464 -0.0442825395 -0.8851144191
H -2.6934992803 -0.0541548857 0.8888335604
H 1.6834984729 1.3956229739 0.0021384437
H 2.7604663337 -0.4941677163 1.2662561489
H 1.1899625221 -1.4015492684 1.2484208557
H 2.7608427007 -0.4905604015 -1.2670188172
H 1.1903526006 -1.3979915614 -1.252246114
*
