! pbe def2-sv(p) def2/J RI DEFGRID1 loosescf d4 GCP(DFT/SV(P)) printgap
%output
    printlevel normal
end
* xyz 0 1
C -2.0809517296 -1.3763886561 -0.1517728164
C -1.0181087463 -0.516015817 0.5531160823
H -1.4645336509 -0.1565823438 1.4900688543
C -0.6478626433 0.7180616643 -0.2842194148
H -0.5387404544 0.458406565 -1.3534264203
C 0.7009786495 1.2451966821 0.2097059036
H 0.6396350422 1.4010734682 1.3004556079
C 1.7940430025 0.2030073783 -0.0859203967
H 2.1247788732 0.317164006 -1.1250672652
C 1.2399552384 -1.2391219148 0.0995574106
H 1.9939751645 -1.8422904698 0.6206751987
O 0.126315334 -1.2590611013 0.9516807549
O 1.0372038361 -1.8925356297 -1.1097720026
O 2.9373772762 0.4445796446 0.6937241135
O 0.9517190316 2.4708786289 -0.4367596244
O -1.6685364653 1.6725265724 -0.1505910816
O -3.3280172533 -0.7406210059 -0.1488948566
H -2.1960157406 -2.3181367077 0.3902899542
H -1.7685210273 -1.6081834279 -1.1834841118
H 0.3393414774 -1.4641425777 -1.6195959307
H 2.7471116187 0.2246784593 1.6137918795
H 1.8681200443 2.7185747132 -0.2675072653
H -1.2978546663 2.5273315096 -0.4087338636
H -3.1948592957 0.2003760207 -0.3302353432
*
