! pbe def2-sv(p) def2/J RI DEFGRID1 loosescf d4 GCP(DFT/SV(P)) printgap
%output
    printlevel normal
end
* xyz 0 1
C -3.6485734608 -0.0327493074 -0.0522355932
C -2.1527080591 -0.0189716766 -0.0034095101
C -1.4352250299 -1.18688202 0.2280374072
C -0.0534757753 -1.1865457046 0.2377620867
C 0.6507485912 -0.0038325881 0.0268368549
C -0.0690919644 1.1744620473 -0.1754484004
C -1.447820838 1.1638509105 -0.2024042591
C 2.1325414895 0.0871858028 0.0386492997
O 2.6933590798 1.1023916663 0.3882694679
C 2.9150094612 -1.1055889836 -0.4589698533
H -4.0502369756 -0.8762587462 0.5039940037
H -4.0577067866 0.8890794982 0.3549825679
H -3.9832940151 -0.1188688288 -1.0867001087
H -1.9679005715 -2.1105736811 0.4050442937
H 0.4689054195 -2.107898303 0.4478585815
H 0.4792422197 2.0937543323 -0.3181561512
H -1.9889558977 2.0834523674 -0.3730695838
H 3.7582135559 -1.2887371379 0.2034175758
H 3.3193894958 -0.8458756472 -1.4370191768
H 2.3126623534 -2.0007876163 -0.5595859657
*
