! pbe def2-sv(p) def2/J RI DEFGRID1 loosescf d4 GCP(DFT/SV(P)) printgap
%output
    printlevel normal
end
* xyz 0 1
C -2.4181487671 -0.8659547861 0.342208357
C -0.9697284064 -0.4359274816 0.6059796427
H -0.7426407111 -0.5750869634 1.6741667072
C -0.7434025158 1.0458252215 0.2485455224
H -1.5411098906 1.3785708515 -0.4298241054
C 0.6136314239 1.2277867912 -0.4820115067
H 0.9078121909 2.2827127416 -0.4088459038
C 1.6699570047 0.3620481844 0.2219419256
H 2.6305553406 0.4428968301 -0.2984954231
C 1.239657963 -1.1247672173 0.1204144265
H 1.4578434169 -1.6153298515 1.0902849356
O -0.1393712783 -1.2780414831 -0.1703059248
O 1.9394722931 -1.7086767002 -0.9216497074
O 1.8847557024 0.7636373572 1.5447474675
O 0.5155887066 0.9447526387 -1.8472373757
O -0.7716490749 1.7681799535 1.4657534735
O -2.8050457862 -0.6309524596 -0.9818486252
H -3.0876586484 -0.2796367399 0.9738971089
H -2.5173017731 -1.9296302601 0.5984050006
H 1.6480629183 -2.6226741883 -1.0258356877
H 1.0385595534 1.0377264237 1.9335656052
H 0.5207030239 -0.0145347581 -1.9638984414
H -0.8022752557 2.7121456644 1.2733555252
H -2.1681179922 -1.0680787181 -1.5599080983
*
