! pbe def2-sv(p) def2/J RI DEFGRID1 loosescf d4 GCP(DFT/SV(P)) printgap
%output
    printlevel normal
end
* xyz 0 1
C 2.4123756722 0.0403291492 0.0886696239
C 0.9878499091 0.4247603923 -0.2884549389
C -0.0304485047 -0.4973501639 0.3946677134
C -1.3776269057 -0.1351939518 0.0385634331
N -2.4405393443 0.1661818624 -0.2549086062
H 2.5597619565 0.1171151393 1.1640719917
H 2.6283786752 -0.9818196429 -0.2157412391
H 3.1231903511 0.700564938 -0.401819599
H 0.7929200259 1.457755987 0.0079323559
H 0.8617877159 0.359763807 -1.3714162145
H 0.0700263801 -0.4313750334 1.4821877881
H 0.1397328224 -1.5358881214 0.0952874376
*
