! r2scan-3c def2/J RI DEFGRID2 scfconv6 printgap
%output
    printlevel normal
end
* xyz 0 1
C -3.4268322434 -0.121836445 -0.0007454134
C -2.9890641667 1.1940635337 -0.0001615303
C -1.6363523564 1.49173586 0.0004601761
C -0.7268393465 0.4464536301 0.0005043171
C -1.17140058 -0.8848360678 0.0001861972
C -2.5197427996 -1.1728170211 -0.000504489
C 5.2816e-06 -1.8240906734 0.0006924385
C 1.1714047575 -0.8848301247 0.0002888026
C 0.7268501194 0.4464539975 0.000449702
C 1.6363537349 1.4917657646 0.000154422
C 2.9890473064 1.1940768381 -0.0003915231
C 3.4268165561 -0.1218506411 -0.0006161276
C 2.5197549722 -1.1728286261 -0.0002367501
H -4.48657783 -0.3315077549 -0.0013371332
H -3.7134336068 1.9956892614 -0.0002565118
H -1.2991039628 2.5176808759 0.0007618793
H -2.8676121911 -2.1960694083 -0.0008569002
H -3.97931e-05 -2.4703754948 0.8821365373
H 5.95816e-05 -2.4720146726 -0.879487016
H 1.2990079462 2.5176813043 0.0003491766
H 3.7135054994 1.9956288543 -0.0006570036
H 4.4865965086 -0.3313669935 -0.0011460762
H 2.8675831258 -2.1960934248 -0.0004629443
*
