! r2scan-3c def2/J RI DEFGRID2 scfconv6 printgap
%output
    printlevel normal
end
* xyz 0 1
C 3.3561991278 0.0295898963 0.1886776191
N 1.9387249274 0.2770188292 0.3075107933
C 1.5720601275 1.3883396738 1.14552132
C 1.0656112098 -0.4978194241 -0.377980426
O 1.4252135741 -1.4003616147 -1.1112770065
C -0.3892047894 -0.1907490712 -0.1789290192
C -1.0624286014 -0.6773048936 0.9356869328
C -2.4208852892 -0.4548560955 1.0766099559
C -3.1132624629 0.2531610223 0.1083662789
C -2.4471480747 0.7309505499 -1.0076312162
C -1.0897876217 0.5051226749 -1.1559474858
H 3.7868848341 -0.1855625302 1.1692887637
H 3.8615577393 0.899301366 -0.2381438397
H 3.4942931821 -0.8281594571 -0.4666903604
H 1.8849524996 1.2043254846 2.1777199758
H 0.4962455608 1.5428407569 1.1245158905
H 2.0672902202 2.2982595459 0.7940676668
H -0.5202076443 -1.2334669621 1.6867895379
H -2.9404873907 -0.8360568612 1.9434464986
H -4.1731858108 0.4273334686 0.2210688524
H -2.9866236127 1.2774217664 -1.7671341572
H -0.5672338129 0.8665079521 -2.0294032005
*
