! r2scan-3c def2/J RI DEFGRID2 scfconv6 printgap
%output
    printlevel normal
end
* xyz 0 1
C 1.685979326 0.3810483691 0.6392839908
C 0.8874266708 0.4238568351 -0.658947763
C -0.5653323646 -0.0497468322 -0.4895095368
H -1.0553141836 0.0121825614 -1.4784232389
C -1.3541196264 0.8037676751 0.4970324143
O -0.6247596112 -1.385089844 -0.0262391938
H 1.3568197574 1.15851251 1.322966706
H 2.7439221507 0.5307265937 0.4362970493
H 1.5572387026 -0.5838248908 1.1248015378
H 1.3718705549 -0.2208926479 -1.3994926298
H 0.8792847645 1.4379870442 -1.0619744002
H -1.3075483828 1.8506155593 0.21105006
H -2.3914472607 0.4810476579 0.5064727656
H -0.95099689 0.679358579 1.4971254933
H -0.0794742577 -1.9363016177 -0.5976211962
*
