! pbe def2-sv(p) def2/J RI DEFGRID1 loosescf d4 GCP(DFT/SV(P)) printgap
%output
    printlevel normal
end
* xyz 0 1
C -2.3683319969 -0.8481249032 -0.1468786287
C -1.0539862667 -0.267879615 0.3943681238
H -1.2318290428 0.1261438059 1.408226422
C -0.5284252514 0.8612423599 -0.4936091669
H -0.4061476714 0.5095150419 -1.5233526662
C 0.8308341629 1.3439892679 0.0330652682
H 0.6735771747 1.8291594856 1.0133556526
C 1.7956443567 0.1731140835 0.2721238291
H 2.6458746638 0.2996869106 -0.4110560754
C 1.136515882 -1.1811798466 -0.0531711265
H 1.7356198127 -1.9882524314 0.4068792772
O -0.1238045176 -1.3456268309 0.5250058454
O 1.1116097172 -1.3280488613 -1.4417763731
O 2.1951401948 0.2247758622 1.6177420587
O 1.4155658664 2.2493317461 -0.8638381767
O -1.4332777872 1.9349408371 -0.5703500375
O -2.9340734141 -1.765767998 0.7471375742
H -2.1706626074 -1.3203822842 -1.1207986976
H -3.097068136 -0.0472490512 -0.2857425615
H 0.6679089563 -2.1564728638 -1.6627445136
H 2.8972486338 -0.4166240616 1.7729931472
H 0.7095351599 2.8022939225 -1.2247250941
H -1.6185601994 2.2557990429 0.3216706978
H -2.2375511691 -2.3783116852 1.0140250644
*
