! pbe def2-sv(p) def2/J RI DEFGRID1 loosescf d4 GCP(DFT/SV(P)) printgap
%output
    printlevel normal
end
* xyz 0 1
C -2.1841446722 -1.2391870838 0.0818633445
C -0.8561310127 -0.570990481 0.4863030076
H -0.9406632104 -0.2660996177 1.5429622032
C -0.5844486527 0.6811971568 -0.3671816901
H -0.609000724 0.3976829367 -1.4264180779
C 0.7998458159 1.2912190324 -0.0550500608
H 0.7005544795 2.0311683961 0.7495276624
C 1.8026421574 0.2100830944 0.4265429927
H 2.7974186561 0.4955580596 0.069116768
C 1.3965042035 -1.14011517 -0.169697879
H 2.1064430075 -1.9243484058 0.1381502724
O 0.1697668329 -1.5588958338 0.3658585294
O 1.367988177 -1.0175348967 -1.5622332306
O 1.8830925266 0.1186964935 1.8226168721
O 1.3061464002 1.995012883 -1.1528159144
O -1.6264963471 1.6176526083 -0.2200049548
O -3.2987625053 -0.490735622 0.4653839749
H -2.2555071898 -2.2025712005 0.5921861577
H -2.1751670994 -1.418126437 -1.0035773072
H 1.087952733 -1.858132374 -1.9443492749
H 1.2244157828 -0.513900428 2.1362325285
H 1.4654454574 1.3655325169 -1.8680653947
H -1.5070926813 2.1067632103 0.6030845293
H -3.2076391006 0.3927195419 0.0749654929
*
