! r2scan-3c def2/J RI DEFGRID2 scfconv6 printgap
%output
    printlevel normal
end
* xyz 0 1
C -3.6975840254 0.1508739904 -0.2907395125
C -2.2608141007 0.1106879597 0.2203880014
H -2.2772581344 -0.0611548347 1.302518872
C -1.533627667 1.424661593 -0.0563105259
C -0.0867684455 1.3783657143 0.4262602827
C 0.6898613406 0.2351559017 -0.2506891726
H 0.6399359102 0.3872480294 -1.3348295856
C -0.0691490688 -1.0349585832 0.0900981965
O 0.3722318114 -1.9229023272 0.7751923819
C -1.484604722 -1.0406867287 -0.435493576
C 2.1652348346 0.1408704301 0.1722914163
C 2.8828810391 -0.8868148265 -0.7033945132
C 2.8889564843 1.482630745 0.0783540597
H -4.2500721106 0.9533701308 0.1926367858
H -3.7152979443 0.3205026164 -1.3654402014
H -4.2045449037 -0.7882303832 -0.0827263702
H -1.5523912073 1.6273121763 -1.1303981166
H -2.0553664804 2.2431057073 0.4445817177
H 0.3926396601 2.3308414386 0.2002630655
H -0.061238191 1.2336208481 1.5089635269
H -1.4779134024 -0.9011201601 -1.5182404799
H -1.9542131865 -1.9977138412 -0.2031083603
H 2.1964742236 -0.2084054642 1.209324052
H 2.8760496373 -0.5704725374 -1.7453916877
H 2.4011525405 -1.8573783884 -0.6289521114
H 3.9171011456 -0.9962386011 -0.3859362541
H 3.9529279715 1.3368673317 0.250307609
H 2.5263415987 2.1880483453 0.8210653177
H 2.7622003875 1.9175319828 -0.9115077911
*
