! r2scan-3c def2/J RI DEFGRID2 scfconv6 printgap
%output
    printlevel normal
end
* xyz 0 1
C 0.3984993583 -1.7052078296 0.1562614338
C 0.4527194641 -0.271921303 -0.3356553152
H 0.3121102611 -0.2251290311 -1.4185487953
C -0.5433336934 0.6368402004 0.3638718127
Cl -2.2062674163 0.1647687827 -0.0708368888
Cl 2.0853038674 0.4078345004 -0.0175945933
H -0.5906643985 -2.1147829738 -0.0361571086
H 1.1366767203 -2.3117693747 -0.3614912631
H 0.5967329318 -1.748648943 1.2248009201
H -0.4540907422 0.5563594975 1.4473696835
H -0.4148808407 1.6746149031 0.0562171578
*
