! pbe def2-sv(p) def2/J RI DEFGRID1 loosescf d4 GCP(DFT/SV(P)) printgap
%output
    printlevel normal
end
* xyz 0 1
C -0.6391116983 -0.3415243749 -0.4448868069
C 0.65424346 -0.4309565398 0.3846574558
O 1.6311784867 0.3825091976 -0.2229484174
O -1.6779743488 0.3491584428 0.2001674981
H -0.970897437 -1.3472481324 -0.7353740684
H -0.4164004748 0.2314925932 -1.3467873764
H 1.0057440331 -1.472224984 0.4323769269
H 0.4482640151 -0.0868747351 1.4091322578
H 2.4256722871 0.3928580071 0.3208531022
H -1.9298681598 -0.1269470677 0.999167922
*
