! pbe def2-sv(p) def2/J RI DEFGRID1 loosescf d4 GCP(DFT/SV(P)) printgap
%output
    printlevel normal
end
* xyz 0 1
C -2.49229167 -0.4774750671 1.3081932355
C -2.0459168747 -0.4725403649 -0.1581686919
H -2.9487160087 -0.5622693559 -0.7740972952
C -1.091905902 -1.6144478568 -0.4930447213
C 0.2612531838 -1.4903880228 0.2145183933
C 0.7745653743 -0.0376581688 0.2980060532
H 0.5006973771 0.3768750354 1.2777153613
C 0.0682631197 0.830221707 -0.7514469963
C -1.4170985817 0.8686383403 -0.4846795543
O -2.0557268694 1.8915733535 -0.5134476807
C 2.2907220901 0.0283769952 0.2234692459
C 3.0509929493 -0.8967995224 0.7902253732
C 2.913923209 1.2109075614 -0.4560639797
H -3.1584193163 0.3619935653 1.4918766993
H -3.0211764547 -1.400784499 1.5339437549
H -1.640186543 -0.3938134307 1.9773127131
H -1.552352758 -2.5662143499 -0.2203945215
H -0.9377996217 -1.6306088523 -1.5743510719
H 0.1844865983 -1.9046633104 1.2202170907
H 0.9859515103 -2.0965065266 -0.332134015
H 0.4348655311 1.8559607983 -0.7410313489
H 0.2302323512 0.4155353187 -1.7492678828
H 4.1255369198 -0.8323656386 0.7627056229
H 2.6478447982 -1.7477934951 1.309844537
H 3.9967633151 1.1614040533 -0.3766567568
H 2.6483733762 1.2407949326 -1.5114605344
H 2.5786842465 2.1390614534 0.0049674874
*
