  8
        -27.79025456
 C          0.1685115268        0.6547882063       -0.5104095124
 H          0.2042801462        0.7403766437       -1.6030367319
 C          1.3332594607       -0.2125843130       -0.0143978362
 F          1.3309614182       -0.3730997220        1.3026710961
 F          2.5036619711        0.3327315339       -0.3565773921
 F          1.2810099797       -1.4214713864       -0.5774778830
 F          0.2517156051        1.8821738576        0.0313897070
 Br        -1.5044892376       -0.1757510941        0.0040010108
