! pbe def2-sv(p) def2/J RI DEFGRID1 loosescf d4 GCP(DFT/SV(P)) printgap
%output
    printlevel normal
end
* xyz 0 1
C 1.6779063043 -0.8935814973 -0.3876728097
C 0.7190981168 0.1860708963 0.026788875
C 1.1603661059 1.3858248328 0.3907601174
C -0.7126589719 -0.1666810499 0.0373355572
C -1.1294512367 -1.3799133194 0.3877544532
C -1.7096283239 0.8775158271 -0.3901590339
H 2.6616336269 -0.4760948272 -0.5865663338
H 1.3182805445 -1.4019369751 -1.2802411234
H 1.7779527774 -1.6353692432 0.4037089085
H 0.506729014 2.1678074457 0.7366639441
H 2.2114966291 1.6211001124 0.3871800263
H -2.1781677212 -1.627195236 0.3989250536
H -0.4573957334 -2.1598222024 0.6986007466
H -2.0990873783 0.6236561848 -1.3761690535
H -2.549981451 0.9155727623 0.2998705889
H -1.2585759799 1.8622215869 -0.4542703964
*
