! pbe def2-sv(p) def2/J RI DEFGRID1 loosescf d4 GCP(DFT/SV(P)) printgap
%output
    printlevel normal
end
* xyz 0 1
C -2.4699020161 -0.450439415 1.331349644
C -2.0478050711 -0.4718812918 -0.1421127806
H -2.9616034807 -0.5659943066 -0.740910798
C -1.1065816107 -1.624953357 -0.4746046842
C 0.2608125678 -1.5012476512 0.206554397
C 0.7723555072 -0.0492712804 0.2875763931
H 0.4922157402 0.370452188 1.2635762245
C 0.0690454811 0.810892704 -0.7709594276
C -1.4160116268 0.858931302 -0.5032652165
O -2.0520064771 1.8825769544 -0.5560982779
C 2.287837442 0.0291481956 0.223561597
C 3.0613608991 -0.9320157455 0.7059388618
C 2.8965073672 1.2797949763 -0.3384757517
H -3.008430704 -1.362830372 1.5777061881
H -1.6063299137 -0.3713017736 1.9860086843
H -3.1210318388 0.4008426855 1.5146016475
H -1.5689707126 -2.5694238726 -0.1808292853
H -0.9715523306 -1.657236556 -1.5581329913
H 0.2072751796 -1.9212613153 1.211479856
H 0.9738518473 -2.1019493908 -0.3607337906
H 0.4384358213 1.8354929577 -0.7734536159
H 0.2302614619 0.3841904303 -1.7639195176
H 4.1346982061 -0.8463736243 0.6866965753
H 2.6750008816 -1.8344235554 1.1447423979
H 3.9762676618 1.2599379941 -0.2157511132
H 2.6754340571 1.3784761934 -1.4001234775
H 2.5084550482 2.1593529974 0.173485129
*
