! pbe def2-sv(p) def2/J RI DEFGRID1 loosescf d4 GCP(DFT/SV(P)) printgap
%output
    printlevel normal
end
* xyz 0 1
C -1.6450393309 -1.3776215537 -0.5817430649
C -1.1242143605 -0.5055034181 0.5701739022
H -1.8953349933 -0.5011557953 1.3495307178
C -0.8733136218 0.9514712062 0.1205103551
H -1.216048659 1.0836786793 -0.9104694045
C 0.6260832844 1.2727839699 0.1997862014
H 0.9091776267 1.3912709023 1.2611903207
C 1.4565934884 0.1287743273 -0.386105833
H 1.1587306832 -0.0376927755 -1.4322981709
C 1.1824687648 -1.1506960183 0.4188112974
H 1.9944818983 -1.2722903762 1.151216814
O 0.0155460677 -1.0676863826 1.2012190689
O 1.1434662203 -2.2258807251 -0.467592235
O 2.8258160061 0.4127394503 -0.3085968556
O 0.9348857826 2.4500057879 -0.5084197523
O -1.6037191026 1.8976282315 0.8632050002
O -2.8985968139 -0.8670859743 -0.9692088445
H -1.7341411929 -2.410955921 -0.2185433395
H -0.9340420357 -1.3612884121 -1.4168402121
H 1.0895900508 -3.0479833501 0.0338984143
H 2.9471366679 1.3047826496 -0.6609396399
H 0.2354302105 3.0903308241 -0.3270647639
H -1.4423883213 1.7528231253 1.8034848446
H -3.2406871623 -1.3985835675 -1.6955386388
*
