! r2scan-3c def2/J RI DEFGRID2 scfconv6 printgap
%output
    printlevel normal
end
* xyz 0 1
C 3.7235027414 -0.1805890189 -0.0510024515
C 2.2476499545 -0.3276842097 0.3082747857
H 2.1678401595 -0.5452583555 1.3793289277
C 1.601234128 -1.472409054 -0.4695245881
C 0.121366573 -1.5967373531 -0.122555651
C -0.6435540518 -0.3025968177 -0.4209570097
H -0.5129856256 -0.0752105055 -1.4878331901
C -0.0005084011 0.8433983078 0.3803210019
H -0.0895621253 0.6375746219 1.4510775912
C 1.4850803688 0.9627973302 0.0187781915
O -0.649769012 2.0842557366 0.1993461012
C -2.1576149587 -0.4930578597 -0.1765967086
C -2.5426686084 -0.4328281133 1.2997396712
C -2.9954737738 0.516450067 -0.9620634438
H 4.2630582276 -1.0990155615 0.1689218928
H 3.8374301752 0.0376710115 -1.1109665678
H 4.1769867361 0.6288575863 0.5163770344
H 1.7109251795 -1.2866246285 -1.5409828905
H 2.1116154203 -2.4105534203 -0.2412082475
H -0.3181964835 -2.4160922143 -0.6959257627
H 0.0216369165 -1.8412130104 0.936790682
H 1.5744707802 1.2048679306 -1.0452942259
H 1.9151683356 1.7911213267 0.586273449
H -0.562663209 2.3335361756 -0.7280314688
H -2.4079386991 -1.4935304316 -0.5526616218
H -1.9479294421 -1.1238596248 1.8919168911
H -3.5903091294 -0.7018227447 1.4171737091
H -2.4050115912 0.5736955087 1.6849851423
H -4.0524793551 0.2781163896 -0.8634284577
H -2.7406992401 0.4943917981 -2.0202991917
H -2.8353360832 1.5204969221 -0.5798600235
*
