! pbe def2-sv(p) def2/J RI DEFGRID1 loosescf d4 GCP(DFT/SV(P)) printgap
%output
    printlevel normal
end
* xyz 0 1
C -2.2090398374 -1.2194162854 0.0638595843
C -0.8748426792 -0.5646322206 0.4612533091
H -0.9635121849 -0.2385127742 1.5095557518
C -0.5738638614 0.6629066636 -0.4022546498
H -0.5409689648 0.349080359 -1.4591759761
C 0.7936589988 1.2820210509 -0.0430278057
H 0.6550598019 2.0034056658 0.7710013598
C 1.8010061042 0.2080923174 0.4345757538
H 2.7936805217 0.4825927253 0.0629267549
C 1.3904251168 -1.1498683439 -0.1461198576
H 2.0876564384 -1.9328167478 0.1917141642
O 0.1461492138 -1.5579277186 0.3534732444
O 1.4056286314 -1.0464070565 -1.542926702
O 1.9105110906 0.1323931195 1.8273469524
O 1.2900319082 2.0164700141 -1.1320178111
O -1.6139833833 1.5993663546 -0.2236800747
O -3.3118553291 -0.5001368379 0.5268290039
H -2.2571736403 -2.2100612945 0.5223715744
H -2.2392366155 -1.3383367194 -1.0303332092
H 1.1228117266 -1.8886319569 -1.9194808298
H 1.1746504979 -0.3850554365 2.1773542836
H 1.5450707509 1.3912537926 -1.8230945478
H -1.3364997753 2.4279428757 -0.6333074832
H -3.1880264035 0.4259655179 0.2731950676
*
