! pbe def2-sv(p) def2/J RI DEFGRID1 loosescf d4 GCP(DFT/SV(P)) printgap
%output
    printlevel normal
end
* xyz 0 1
C -3.2232229942 0.3293865173 0.9482719997
C -1.7413624669 0.2350422424 0.5929468182
H -1.1780930539 0.1620686182 1.5289845561
C -1.2818585568 1.4809504549 -0.1818169507
C -0.1759229868 1.1735750832 -1.1978255258
C 0.785809882 0.0813769541 -0.723562427
H 1.5254286214 -0.1155457765 -1.5090289041
C 0.0022351251 -1.206759947 -0.5433173085
O 0.4952269185 -2.296658021 -0.7019262149
C -1.4614466796 -1.0306099563 -0.214013215
C 1.5830426941 0.4714129857 0.545253219
C 2.293089762 -0.737410995 1.1508403461
C 2.612762528 1.5504320568 0.2115433771
H -3.419333366 1.2355426887 1.5171785081
H -3.8323856311 0.3504006098 0.0467903174
H -3.5290588074 -0.5245509714 1.5486261496
H -2.1321749678 1.9078148533 -0.7178627759
H -0.9390286284 2.2381953718 0.5252011634
H -0.6270776286 0.8352005998 -2.1337118275
H 0.3737223373 2.0874279032 -1.4252149569
H -2.0022733604 -0.9892492201 -1.1645574111
H -1.8108214301 -1.9195420793 0.3152007985
H 0.8927655375 0.8762978771 1.2897304933
H 2.9238791837 -0.4227519373 1.979665803
H 2.9170164953 -1.2250949571 0.4058652139
H 1.5810813839 -1.4693032713 1.5232371214
H 3.3249819395 1.1816119712 -0.5234986079
H 3.1618292222 1.8291771695 1.1082527816
H 2.1403392223 2.4458646351 -0.1834140704
*
