! pbe def2-sv(p) def2/J RI DEFGRID1 loosescf d4 GCP(DFT/SV(P)) printgap
%output
    printlevel normal
end
* xyz 0 1
C -1.7961776992 -1.0285492877 -0.6858267329
C -1.0339379858 -0.4403396743 0.5206533467
H -1.6988823088 -0.514056806 1.3912926658
C -0.6842116545 1.0540744274 0.3293367234
H -1.5058488032 1.535469535 -0.2203290121
C 0.6224526418 1.2499939021 -0.4715389333
H 0.943884948 2.2920873263 -0.326718629
C 1.7332010571 0.3445024685 0.0826225718
H 2.6028844707 0.4054589216 -0.5897892477
C 1.2473603716 -1.1180214566 0.1197866641
H 1.9719827513 -1.741442107 0.6639482824
O 0.0842598524 -1.2262012385 0.8983973086
O 1.1504375747 -1.6589516296 -1.1517890765
O 2.0514753522 0.8176600096 1.3707988801
O 0.4678428246 0.9591395979 -1.8459537822
O -0.6099854135 1.7336078667 1.5513864413
O -3.1767808922 -0.7765993527 -0.6117080512
H -1.6866481825 -2.1146733365 -0.6678797084
H -1.3887569027 -0.6487404863 -1.632745035
H 0.7785302213 -0.9985293682 -1.7554154809
H 2.646014227 0.1918278909 1.7997900981
H -0.0709136355 1.6448323725 -2.2555032099
H 0.1989475798 1.4458452467 2.0009829967
H -3.3281769517 0.1695687132 -0.5082685961
*
