! pbe def2-sv(p) def2/J RI DEFGRID1 loosescf d4 GCP(DFT/SV(P)) printgap
%output
    printlevel normal
end
* xyz 0 1
C -2.2163753167 -0.9744499413 -0.4873202634
C -1.2321154707 -0.171275987 0.3803353338
H -1.7762617894 0.1977182828 1.2574812054
C -0.6556278478 1.0425064653 -0.3558721044
H -0.5496491064 0.8298040263 -1.4360846985
C 0.7405393647 1.3332436511 0.2038561294
H 0.6868787523 1.424868963 1.2987631148
C 1.654667138 0.156905733 -0.1447977199
H 1.8139578137 0.1526126648 -1.2369695049
C 0.9825298213 -1.1855055901 0.2546205302
H 1.6234459696 -1.7007156629 0.9825343476
O -0.227931801 -1.021801371 0.9338147168
O 0.8964411181 -2.0597515367 -0.8301741432
O 2.8788194754 0.369577881 0.5158022008
O 1.1980443143 2.532788787 -0.3686005669
O -1.522454446 2.1245472295 -0.1759453455
O -2.6701144175 -2.1143589738 0.1811640648
H -1.7425715248 -1.2542559658 -1.4447819521
H -3.0858202922 -0.351327983 -0.7063792927
H 0.2568487931 -1.7318534847 -1.4747188908
H 3.478134547 -0.3600275618 0.3237553112
H 2.1150249348 2.6522546888 -0.0950359111
H -1.0269683739 2.9250971057 -0.3968744724
H -1.9120377545 -2.5018467618 0.6413347539
*
