! pbe def2-sv(p) def2/J RI DEFGRID1 loosescf d4 GCP(DFT/SV(P)) printgap
%output
    printlevel normal
end
* xyz 0 1
C -1.763975211 -1.3197224616 -0.5722506571
C -1.1333086764 -0.4984411748 0.5696285467
H -1.8497574345 -0.4492815102 1.3994144661
C -0.8588928373 0.9560210877 0.1367335632
H -1.1648453157 1.091178984 -0.913346802
C 0.6386404698 1.2656505613 0.2268493163
H 0.9341901469 1.3357681557 1.2860824435
C 1.4031291392 0.1078679929 -0.4164910784
H 1.0075081107 -0.0666157006 -1.4313447762
C 1.1969484026 -1.1535609245 0.4470890979
H 1.9822007673 -1.1759711629 1.2166231616
O -0.0124699775 -1.1480458376 1.1466262525
O 1.3914713908 -2.3205910081 -0.3045617737
O 2.7631789521 0.4611292922 -0.4927255263
O 0.8782193648 2.4836073854 -0.4282573697
O -1.613680792 1.8075942864 0.9599219626
O -2.9337506833 -0.7298031029 -1.0656693409
H -1.9571128793 -2.3393098501 -0.2041631268
H -1.089189643 -1.3718982254 -1.4322598204
H 0.5675358098 -2.5753152895 -0.7344092112
H 3.2657434977 -0.3131586526 -0.7704022278
H 1.829356015 2.5395267731 -0.5846589123
H -1.3440321022 2.7132061829 0.7631994164
H -3.5230114919 -0.5277674158 -0.3295006403
*
