! pbe def2-sv(p) def2/J RI DEFGRID1 loosescf d4 GCP(DFT/SV(P)) printgap
%output
    printlevel normal
end
* xyz 0 1
C -1.0935118621 -1.8636271303 0.0002989422
C 0.239111021 -1.4887476557 1.01122e-05
C 0.5490594571 -0.1361100983 -0.0002249364
C -0.4401615984 0.8386420875 -0.0002929937
C -1.7731398108 0.4510019816 -8.17614e-05
C -2.0925025534 -0.9088718823 0.000273632
O -2.7851961798 1.3445836606 -0.0001979578
N 1.9300776108 0.2782062712 -6.17266e-05
O 2.1598142735 1.4694777099 0.0007056072
O 2.778501484 -0.5868586118 -0.0004660248
H -1.355835995 -2.9097981633 0.0005245559
H 1.0350891107 -2.2160009347 2.51291e-05
H -0.1543732749 1.8811058446 -0.0005034013
H -3.1336051893 -1.1889720806 0.00052885
H -2.4416493741 2.2470174655 -0.0001754267
*
