! r2scan-3c def2/J RI DEFGRID2 scfconv6 printgap
%output
    printlevel normal
end
* xyz 0 1
C -1.8977502775 0.0454081174 -0.445035974
C -0.8704761973 -0.2293049221 0.6531611801
C 0.537615186 -0.0885473237 0.101479807
O 1.2355944735 -1.0242156373 -0.2127937217
N 0.9500025717 1.195273549 -0.0329088068
H -1.8052248829 1.0618199844 -0.8225632466
H -1.7508296552 -0.6431051425 -1.2735360819
H -2.9056119693 -0.0884979265 -0.0590652543
H -0.9895176044 -1.2493108966 1.0183626905
H -1.012958867 0.4630341181 1.4849694779
H 0.3705820019 1.9742930606 0.2209584926
H 1.8595109215 1.37622466 -0.4234272562
*
