! pbe def2-sv(p) def2/J RI DEFGRID1 loosescf d4 GCP(DFT/SV(P)) printgap
%output
    printlevel normal
end
* xyz 0 1
C -2.4434971892 -0.8634841468 0.0225311926
C -1.0579515187 -0.5263212669 0.5897220068
H -1.0075405922 -0.8064146783 1.6540228002
C -0.7571754129 0.9844017655 0.4880913305
H -1.6361242998 1.493489906 0.0717616028
C 0.431870164 1.2248164611 -0.4630636424
H 0.7205471607 2.2885624786 -0.3998600514
C 1.6384902537 0.3853097064 0.006920159
H 2.4256171103 0.4015944839 -0.7572500651
C 1.2064388117 -1.0981437363 0.2186376264
H 1.3641542725 -1.350174185 1.2828128318
O -0.134054464 -1.2996980363 -0.1455874258
O 1.9686566823 -1.9800500643 -0.5295056329
O 2.2114696197 0.9430672413 1.1553168521
O 0.0146443385 0.9054782953 -1.7674749378
O -0.4685195406 1.4573309706 1.7886832067
O -2.7019415558 -0.2109705833 -1.188243164
H -3.2193744071 -0.5456144157 0.7229369343
H -2.4938536182 -1.9542309188 -0.1009738255
H 1.5171583237 -2.1077294063 -1.3730955245
H 1.5196663908 1.0125397038 1.832473685
H 0.7486468033 1.0480470226 -2.3753780602
H -0.4739712439 2.4215451016 1.7857776896
H -1.8965643123 -0.2375153206 -1.7231166578
*
