! pbe def2-sv(p) def2/J RI DEFGRID1 loosescf d4 GCP(DFT/SV(P)) printgap
%output
    printlevel normal
end
* xyz 0 1
C -2.517408642 -0.7345888351 -0.0539605451
C -1.1311714795 -0.5130860085 0.5751892937
H -1.1599583532 -0.9038594408 1.6085652491
C -0.7208051284 0.9814344824 0.6410403563
H -1.592806602 1.6182685881 0.4275695158
C 0.3631891961 1.2565824626 -0.4249674605
H 0.659441229 2.308990154 -0.3673504976
C 1.603886325 0.3846864557 -0.1278451367
H 2.2119005412 0.3254857881 -1.0386104817
C 1.1417536207 -1.0488355358 0.2649447908
H 1.200014207 -1.1550847738 1.3601112938
O -0.1929664606 -1.2579095196 -0.1712454066
O 1.928605504 -2.0507558305 -0.2567082838
O 2.4251434436 0.9586780893 0.8451482689
O -0.1398199614 1.0548699936 -1.7154372258
O -0.1747477269 1.3225655597 1.8982138884
O -2.617144607 -0.3490171559 -1.3922063838
H -3.2614632126 -0.2122532623 0.5684057004
H -2.7348306145 -1.8044589402 -0.0409924351
H 1.8044459226 -2.0856969067 -1.2132427808
H 1.8766274395 1.1794242803 1.6110339844
H -0.3199495123 0.1068583443 -1.8265027675
H -0.8604570281 1.2778354977 2.573357641
H -2.3113519635 0.5618778085 -1.506522469
*
