! pbe def2-sv(p) def2/J RI DEFGRID1 loosescf d4 GCP(DFT/SV(P)) printgap
%output
    printlevel normal
end
* xyz 0 1
C -2.5570092999 -0.7126817055 -0.2999366498
C -1.1775630603 -0.3041777044 0.2300287203
H -1.2143697016 -0.2564667939 1.3321917947
C -0.7311361679 1.064860196 -0.3197109885
H -0.7346131699 1.0190339758 -1.4165177983
C 0.6957875415 1.337101057 0.1742545836
H 0.6983148145 1.4173068433 1.270339876
C 1.6208526498 0.1714549263 -0.2225479311
H 1.654807797 0.1013716239 -1.3269417875
C 1.0435904322 -1.1505374625 0.3233287374
H 1.045173545 -1.1174769724 1.4237748581
O -0.2739527248 -1.3144364539 -0.1692519074
O 1.7717512606 -2.2586078637 -0.0258238023
O 2.9066187397 0.3695289618 0.290190093
O 1.2215096015 2.5600201278 -0.282201206
O -1.6187304789 2.0969317013 0.0056059551
O -3.0256828011 -1.8706747397 0.3271138903
H -2.4808585539 -0.8547471091 -1.386775404
H -3.2783119046 0.0794796737 -0.0917642929
H 1.8190856963 -2.321455879 -0.9881426804
H 3.0984268331 1.3167531401 0.2348197331
H 0.9418529437 2.7100026532 -1.1929042522
H -1.6129224566 2.2385778076 0.9600265311
H -2.3433062834 -2.547614579 0.2355909859
*
