! pbe def2-sv(p) def2/J RI DEFGRID1 loosescf d4 GCP(DFT/SV(P)) printgap
%output
    printlevel normal
end
* xyz 0 1
C -2.4881721601 -0.4519982986 -0.3105603462
C -1.0816337082 -0.2054230928 0.245995708
H -1.0729153992 -0.4387024836 1.3263428512
C -0.6375007935 1.2701708209 0.0716016404
H -1.3106140997 1.7849407898 -0.6219467164
C 0.7892855332 1.3141656115 -0.5267790394
H 1.1730940157 2.3354707396 -0.4127609751
C 1.6914660133 0.333351809 0.2528150389
H 2.6812048468 0.2922405132 -0.2176430373
C 1.0940833325 -1.087616476 0.1669502595
H 1.0289588129 -1.490059335 1.2006336992
O -0.1903128187 -1.0875098009 -0.4101020303
O 1.9123943273 -1.8644640637 -0.6308960857
O 1.7826180394 0.6933855191 1.6175712865
O 0.8029843028 1.0459087912 -1.8970724611
O -0.7143569659 1.9739736602 1.2810572139
O -3.0023428055 -1.7129745644 0.0145156294
H -2.4506034696 -0.4194179861 -1.4010595566
H -3.1434036632 0.3508500364 0.0553693496
H 1.4329779966 -2.6692552986 -0.8646903872
H 2.3800766264 1.4449749631 1.7018766429
H 0.5087341343 0.1327527323 -2.0269616023
H -0.0359868658 1.6136107525 1.8741701714
H -3.0357258302 -1.8047407898 0.9737603541
*
