! pbe def2-sv(p) def2/J RI DEFGRID1 loosescf d4 GCP(DFT/SV(P)) printgap
%output
    printlevel normal
end
* xyz 0 1
C -2.4139336735 -0.705200757 0.0120044565
C -0.9884161325 -0.2654056939 0.3553565209
H -0.9437960902 0.0185456992 1.4150231521
C -0.5315972074 0.9128338108 -0.5054053208
H -0.5114242853 0.5835943277 -1.5586840249
C 0.899982255 1.3408669023 -0.1057438868
H 0.8196334609 2.1572376211 0.6236281806
C 1.6774647608 0.1709513289 0.5385761951
H 2.7416554197 0.2924317964 0.2822474959
C 1.1990691955 -1.1437217695 -0.0853635907
H 1.7450971456 -1.9899405634 0.3605231363
O -0.1491836642 -1.4027451634 0.1405921295
O 1.4809805715 -1.0534809948 -1.4621582345
O 1.5032436057 0.0735205392 1.9257596673
O 1.5994331812 1.8690315719 -1.201952283
O -1.4458285931 1.9673603078 -0.3480859404
O -2.856589718 -1.7304454341 0.8563547697
H -2.4393814155 -1.029210903 -1.0394458083
H -3.0910526377 0.1393773737 0.1445338683
H 1.1122395407 -1.8321585416 -1.8963944174
H 1.829450808 0.8796355681 2.3423138651
H 1.7830490536 1.1398024376 -1.810452845
H -1.1083569368 2.7299542432 -0.8336743083
H -2.1572802842 -2.394079756 0.8952635454
*
