  9
        -13.48285410
 C         -2.2711744151        0.3285157475       -0.2637044930
 C         -1.2294910595       -0.0370436994        0.4609303954
 C         -0.0769640253       -0.8055929026       -0.0793421173
 Cl         1.4019026761        0.2189735501       -0.0332642616
 H         -3.0869515418        0.8890563400        0.1582732764
 H         -2.3533864385        0.0740590150       -1.3076486234
 H         -1.1558048366        0.2354808840        1.5046486323
 H          0.1470474640       -1.6821466766        0.5291724317
 H         -0.2288961658       -1.0921650963       -1.1191756283
  9
        -13.48166647
 C         -1.8288754426        0.6307331831       -0.1334796187
 C         -1.3561639541       -0.5354921679        0.2589368653
 C          0.0801015605       -0.9369084533        0.3305369339
 Cl         1.2074509867        0.3438666703       -0.1832524791
 H         -2.8855363882        0.8318089865       -0.1524601871
 H         -1.1796331551        1.4287922541       -0.4505384312
 H         -2.0236183932       -1.3278537053        0.5749202064
 H          0.3505562442       -1.2005181044        1.3558593722
 H          0.2671021323       -1.7977492889       -0.3158710093
  9
        -13.48053310
 C         -1.9171512603        0.5357197678       -0.2530654632
 C         -1.3088859299       -0.3769839659        0.4820523978
 C          0.0293448434       -0.9582033496        0.1555032144
 Cl         1.2452105316        0.3278949648       -0.1436169273
 H         -2.8813763071        0.9299182423        0.0156044778
 H         -1.4641880145        0.9344018787       -1.1456779318
 H         -1.7697814578       -0.7533558775        1.3849258416
 H          0.4160589191       -1.5639226197        0.9734180811
 H         -0.0066137240       -1.5536449299       -0.7584423669
