! r2scan-3c def2/J RI DEFGRID2 scfconv6 printgap
%output
    printlevel normal
end
* xyz 0 1
C -2.5568435619 -1.0026e-06 -2.67301e-05
C -1.8685107589 -1.2043135752 0.0004378244
C -0.4865156308 -1.211267313 0.0004518961
C 0.1942862058 -3.041e-07 2.41441e-05
C -0.4865170248 1.2112691095 -0.0004089711
C -1.8685092892 1.2043144034 -0.0004505216
N 1.6368688705 8.09e-07 3.3882e-06
O 2.1998573694 1.0738588067 0.0009265096
O 2.199854293 -1.0738605734 -0.0009527446
H -3.6363803904 4.5285e-06 1.20457e-05
H -2.4101080938 -2.1375511574 0.0008299105
H 0.0757243564 -2.1324715196 0.0007903571
H 0.0757282411 2.1324703699 -0.0007718895
H -2.4101119943 2.1375488755 -0.0008204563
*
