! pbe def2-sv(p) def2/J RI DEFGRID1 loosescf d4 GCP(DFT/SV(P)) printgap
%output
    printlevel normal
end
* xyz 0 1
C 2.9073421254 2.2197170822 1.2074303881
C 2.2032724059 1.7174641222 -0.0522413047
C 2.8924881661 0.4518770251 -0.6240349918
C 1.8702231182 -0.6181607623 -0.3878042379
C 1.9014190635 -1.9722537086 -0.6346891234
C 0.7848934098 -2.7327427052 -0.3110749817
C -0.3334591958 -2.141611774 0.2485874412
C -0.3764380309 -0.7709032363 0.4977149495
C 0.74240112 -0.0123110088 0.1672349418
O 0.8649379935 1.3191465877 0.3241630287
O -1.4590859025 -0.1808899338 1.1244171326
C -2.6904748189 -0.1550663451 0.5531376878
O -3.6470341605 0.1682596332 1.2039513267
N -2.7390798338 -0.5013283221 -0.7565795192
C -3.9726540937 -0.4801222551 -1.5020229052
C 2.0821094756 2.8298479203 -1.0904834066
H 3.911760726 2.558853523 0.967993587
H 2.3456675131 3.0444348779 1.6379201408
H 2.9643294895 1.4213047118 1.94403363
H 3.1131614858 0.5619843104 -1.6879958802
H 3.828255396 0.2391421597 -0.1057382152
H 2.7763724206 -2.4324769445 -1.0668733651
H 0.7888920786 -3.7964214105 -0.490173372
H -1.1943202808 -2.7378409371 0.5117815791
H -1.882771027 -0.6851554691 -1.2558224055
H -3.9434849982 0.279649847 -2.2858560672
H -4.771748603 -0.2432933314 -0.8019054387
H -4.160812237 -1.4558975133 -1.9537534268
H 1.5537765203 2.4674447087 -1.9696551412
H 3.0693398995 3.1754848085 -1.3850783746
H 1.5234415419 3.6628852751 -0.6724031178
*
