  23
        -28.35008154
 C         -2.7499943807        0.6607013159       -0.7889129064
 C         -1.7547948095       -0.1008296625        0.0503556005
 O         -2.0782653153       -0.7543947199        1.0094361748
 C         -0.3093019988        0.0413269077       -0.3930539502
 C          0.4598313868       -1.2645220423       -0.1823376375
 C          1.9311791049       -1.0929122737       -0.5430384514
 C          2.5604567223        0.0219454388        0.2861219814
 C          1.8022210585        1.3286017252        0.0765400955
 C          0.3319288832        1.1587063454        0.4450675625
 H         -3.7264445165        0.6626627521       -0.3119960335
 H         -2.4093498173        1.6813633100       -0.9454117087
 H         -2.8299497551        0.1782364604       -1.7617457578
 H         -0.2740665898        0.3265915356       -1.4491485118
 H          0.3632811160       -1.5610107130        0.8634312653
 H          0.0138024139       -2.0522366646       -0.7939073074
 H          2.4625777589       -2.0308680951       -0.3712487494
 H          2.0195278515       -0.8488298625       -1.6048631884
 H          2.5260050297       -0.2500629963        1.3432105742
 H          3.6080239507        0.1503226690        0.0060812837
 H          2.2422216116        2.1188055744        0.6883378640
 H          1.8822705126        1.6315559484       -0.9703939583
 H          0.2461395964        0.8970221114        1.5017708893
 H         -0.2031147654        2.0981015417        0.2859519631
  23
        -28.34996594
 C         -2.7817365133        0.1983880123       -1.0058805702
 C         -1.7541428393       -0.0479444016        0.0689612684
 O         -2.0482023158       -0.3979374990        1.1839790924
 C         -0.3118210433        0.1650208067       -0.3587581388
 C          0.4057874444       -1.1920215014       -0.3554977065
 C          1.8787838867       -1.0248753756       -0.7127439074
 C          2.5616335399       -0.0736679940        0.2645986106
 C          1.8579126031        1.2794822132        0.2633558082
 C          0.3844074768        1.1173457502        0.6196794823
 H         -3.7803956997       -0.0168780614       -0.6353610997
 H         -2.7275466324        1.2379448089       -1.3234803044
 H         -2.5657726210       -0.4292565197       -1.8680365258
 H         -0.2785935460        0.5875890484       -1.3674782590
 H          0.3136939831       -1.6316105077        0.6395352871
 H         -0.0774520078       -1.8658647282       -1.0675004302
 H          2.3718640838       -1.9988369192       -0.6929084462
 H          1.9647113424       -0.6269222510       -1.7270132403
 H          2.5238044918       -0.4996521760        1.2693818233
 H          3.6114737626        0.0512362357       -0.0084482737
 H          2.3357620297        1.9498569818        0.9803753329
 H          1.9450323398        1.7328194867       -0.7274016788
 H          0.2869977484        0.7110608546        1.6280197824
 H         -0.1140104676        2.0897054340        0.6001333613
  23
        -28.34941558
 C         -2.6703761668        0.9512460234       -0.4845424201
 C         -1.7631779716       -0.1458652776        0.0219365487
 O         -2.1733670057       -1.0424214193        0.7147519488
 C         -0.3037497275       -0.0213575401       -0.3805230691
 C          0.4830428716       -1.2726905396        0.0093787736
 C          1.9499655874       -1.1359977297       -0.3817637518
 C          2.5656095118        0.0926126543        0.2800801359
 C          1.7890424610        1.3465129509       -0.1080750465
 C          0.3192689401        1.2158557848        0.2824629780
 H         -3.6886866988        0.5782718578       -0.5599877028
 H         -2.6660773481        1.7637011367        0.2408650052
 H         -2.3400787451        1.3387102501       -1.4435276734
 H         -0.2616967157        0.1102169690       -1.4680602196
 H          0.3982935760       -1.4202571289        1.0875302022
 H          0.0408376553       -2.1446148809       -0.4762084077
 H          2.4955684362       -2.0330574844       -0.0833104430
 H          2.0311371739       -1.0418919263       -1.4677025239
 H          2.5378705585       -0.0288114390        1.3651710451
 H          3.6106304494        0.1953929012       -0.0193523900
 H          2.2203517186        2.2206518436        0.3843918613
 H          1.8643178816        1.4995188032       -1.1874857618
 H          0.2386421791        1.1146520571        1.3672016573
 H         -0.2195800895        2.1167777417       -0.0162193714
  23
        -28.34923713
 C         -2.6631675414       -0.3968990905       -1.0601169325
 C         -1.7601332530        0.0113430015        0.0817350749
 O         -2.1697444391        0.1108454819        1.2108919056
 C         -0.3090939108        0.2533171437       -0.2893399430
 C          0.3685185232       -1.1059860354       -0.5231502410
 C          1.8359507652       -0.9113883774       -0.8935806046
 C          2.5685002918       -0.1413039308        0.2004985426
 C          1.8976983495        1.2077964417        0.4391696623
 C          0.4305752557        1.0179463308        0.8077626818
 H         -3.5178582170        0.2762061516       -1.0899013565
 H         -2.1533874666       -0.3817271961       -2.0179009732
 H         -3.0484408370       -1.3963876798       -0.8661929462
 H         -0.2767592463        0.8261689800       -1.2227878743
 H          0.2995025724       -1.6959336973        0.3935281107
 H         -0.1453692557       -1.6530474445       -1.3161625639
 H          2.3063147336       -1.8854015508       -1.0439615999
 H          1.9027600501       -0.3584088415       -1.8337641549
 H          2.5507886253       -0.7224898480        1.1250275562
 H          3.6125453391        0.0052187362       -0.0837521615
 H          2.4118971847        1.7429198368        1.2396518519
 H          1.9701509806        1.8140060619       -0.4675231759
 H          0.3499067376        0.4592083225        1.7417310225
 H         -0.0487660706        1.9867828756        0.9617268875
  23
        -28.34917740
 C         -2.2226628929       -0.7052186596        1.1352288617
 C         -1.7853354717        0.0043708646       -0.1205800984
 O         -2.5740389409        0.5416010825       -0.8585576711
 C         -0.2944875397        0.0391800737       -0.4042021842
 C          0.4402541180       -1.2670782628       -0.1022148592
 C          1.9163556578       -1.1285404173       -0.4670154610
 C          2.5538244048        0.0150233846        0.3165841408
 C          1.8154002664        1.3228617875        0.0477475880
 C          0.3368139096        1.1872103263        0.3991666494
 H         -3.2650935742       -0.4762942968        1.3411716944
 H         -2.1211325340       -1.7790319859        0.9897223579
 H         -1.6060846187       -0.4141926777        1.9810907316
 H         -0.1813494498        0.2749598326       -1.4684908304
 H          0.3606440283       -1.5065092755        0.9595261782
 H         -0.0070322475       -2.0845973633       -0.6720407993
 H          2.4381970274       -2.0633284182       -0.2519357672
 H          2.0102665438       -0.9319745803       -1.5372919625
 H          2.5137162435       -0.2113585453        1.3848381518
 H          3.6040463376        0.1176556175        0.0367592094
 H          2.2586162430        2.1290121052        0.6359733331
 H          1.9144510285        1.5851819931       -1.0076980135
 H          0.2364631687        0.9861217914        1.4682877219
 H         -0.1878865705        2.1190254896        0.1791594294
  23
        -28.34860667
 C         -2.3495646636       -1.0268324600       -0.5404888462
 C         -1.4677932082       -0.0040078938        0.1375902527
 O         -1.6669535358        0.3458637931        1.2733644026
 C         -0.3552550465        0.5760816092       -0.7240210505
 C          0.4960542731       -0.5028264169       -1.4044176521
 C          1.3198280253       -1.2711774928       -0.3753099355
 C          2.2320928238       -0.3151546384        0.3861698745
 C          1.4038159059        0.7595605379        1.0820841919
 C          0.5440009759        1.5223780157        0.0774591134
 H         -1.8599015631       -1.9984597907       -0.5025628673
 H         -3.2935108023       -1.1020652345       -0.0062073455
 H         -2.5290809748       -0.7697834622       -1.5804846849
 H         -0.8692373993        1.1542480226       -1.5042570392
 H         -0.1312395398       -1.1869261056       -1.9772322040
 H          1.1750174895       -0.0125992285       -2.1066998560
 H          0.6533588447       -1.7713284205        0.3313834558
 H          1.9143804736       -2.0374794252       -0.8780258607
 H          2.8191836217       -0.8672180806        1.1227435887
 H          2.9283799695        0.1542394951       -0.3136913073
 H          0.7549852504        0.2961884893        1.8261649376
 H          2.0617333882        1.4592964961        1.6013602211
 H         -0.0780702702        2.2452110100        0.6077167454
 H          1.1886501895        2.0683990871       -0.6155322473
  23
        -28.34803178
 C         -2.4637057646       -1.2375542444       -0.1929222109
 C         -1.7884711451        0.0945080344        0.0073978821
 O         -2.4011998801        1.0630899245        0.3852684717
 C         -0.2995418180        0.1879546507       -0.2982920121
 C          0.4124121068       -1.1261047695       -0.6095141563
 C          1.8800495967       -0.8607267012       -0.9432651400
 C          2.5795849509       -0.1525477229        0.2124570298
 C          1.8688178056        1.1569783040        0.5397419900
 C          0.4031759708        0.8984439683        0.8679680858
 H         -3.5161803518       -1.1531833336        0.0654296179
 H         -2.3703781776       -1.5496042897       -1.2304654794
 H         -1.9948604608       -1.9928526355        0.4326488234
 H         -0.2236196787        0.8419746857       -1.1776004277
 H          0.3611551201       -1.7888176870        0.2571894970
 H         -0.0599094786       -1.6308215799       -1.4540655300
 H          2.3829258972       -1.8056910910       -1.1598702441
 H          1.9408580428       -0.2380269823       -1.8390616936
 H          2.5704230287       -0.7996870681        1.0926910869
 H          3.6217776774        0.0426947843       -0.0478673914
 H          2.3547513454        1.6436633808        1.3875963883
 H          1.9367284018        1.8311439131       -0.3171694395
 H          0.3337482211        0.2698036720        1.7594819687
 H         -0.1131102448        1.8361116065        1.0778320513
  23
        -28.34796875
 C         -2.7295980316       -0.3894206307       -0.6242383963
 C         -1.4633867477       -0.0275160808        0.1160785484
 O         -1.3731246578       -0.1367459207        1.3122743677
 C         -0.3470123013        0.4745963597       -0.7847394010
 C          0.4919867405       -0.7220777451       -1.2686099008
 C          1.3299545402       -1.3121924298       -0.1399874934
 C          2.2599249630       -0.2495532388        0.4350652121
 C          1.4386784429        0.9123303980        0.9818258606
 C          0.5572535996        1.5134405740       -0.1094757965
 H         -3.2360477605        0.5306642217       -0.9126905951
 H         -2.5053555295       -0.9491603662       -1.5284470257
 H         -3.3902465725       -0.9653700417        0.0185031898
 H         -0.8160466304        0.9363153257       -1.6613258852
 H         -0.1614261385       -1.4890194153       -1.6913828082
 H          1.1561617948       -0.3738734498       -2.0638273969
 H          0.6737452217       -1.6809169924        0.6503659568
 H          1.9090598058       -2.1565729987       -0.5205870851
 H          2.8705874071       -0.6797203650        1.2309393791
 H          2.9327752271        0.1090888562       -0.3488469354
 H          0.8081122006        0.5566216805        1.7960188955
 H          2.0998345032        1.6869528232        1.3765952824
 H         -0.0624147732        2.3060598019        0.3159417581
 H          1.1924789928        1.9609445387       -0.8792259929
  23
        -28.34792173
 C         -2.8069004037       -0.1504991440       -0.5664834162
 C         -1.4601307029       -0.0332308915        0.1060019365
 O         -1.3068430877       -0.2872070380        1.2739582739
 C         -0.3416636479        0.4069057096       -0.8242871870
 C          0.5073314127       -0.8161088733       -1.2152656732
 C          1.3465351512       -1.3205833463       -0.0469718896
 C          2.2586082279       -0.2114330435        0.4657361859
 C          1.4168103959        0.9711049669        0.9313456243
 C          0.5507805539        1.4947436954       -0.2097967531
 H         -3.5334360776       -0.5852516954        0.1150566354
 H         -3.1435982769        0.8408367205       -0.8650463590
 H         -2.7259713118       -0.7630639959       -1.4616635337
 H         -0.7998397496        0.8090795286       -1.7346853313
 H         -0.1441080492       -1.6135472845       -1.5821845063
 H          1.1698101868       -0.5221664120       -2.0336906297
 H          0.6897761756       -1.6457451315        0.7612860804
 H          1.9386816041       -2.1798107135       -0.3696415673
 H          2.8675607453       -0.5823879400        1.2920524788
 H          2.9336330039        0.1070606908       -0.3336529355
 H          0.7756718958        0.6541001183        1.7536187221
 H          2.0620877366        1.7750186515        1.2922982812
 H         -0.0759638798        2.3153518488        0.1477156572
 H          1.1963998058        1.8872033751       -1.0006682766
  23
        -28.34776880
 C         -2.5892529361       -0.6968860656       -0.6230129439
 C         -1.4664153216       -0.0177605343        0.1264805523
 O         -1.4917017477        0.1039844884        1.3246120199
 C         -0.3501209783        0.5265153961       -0.7538655577
 C          0.5055612641       -0.6056460645       -1.3445497781
 C          1.3275083077       -1.2975073368       -0.2625473191
 C          2.2495849128       -0.2901481810        0.4157805584
 C          1.4266156738        0.8306606101        1.0405237468
 C          0.5503846997        1.5163875939       -0.0053479380
 H         -3.3140274662       -1.0949725986        0.0822933115
 H         -3.0802529331        0.0254817887       -1.2718860075
 H         -2.2079764172       -1.5030297466       -1.2438514550
 H         -0.8371485393        1.0506192348       -1.5855156981
 H         -0.1238946556       -1.3307696798       -1.8634579229
 H          1.1838105016       -0.1705880543       -2.0830649738
 H          0.6596708980       -1.7362409291        0.4819308040
 H          1.9137067491       -2.1044158601       -0.7083245960
 H          2.8444338415       -0.7867262349        1.1846754343
 H          2.9380945205        0.1257752686       -0.3248511921
 H          0.7905303111        0.4200721130        1.8241777559
 H          2.0882142355        1.5707030158        1.4958508659
 H         -0.0719046350        2.2696256044        0.4818477457
 H          1.1871304905        2.0235729249       -0.7351891639
  23
        -28.34275272
 C         -2.8067920375       -0.1537585026       -0.8496325614
 C         -1.6261127225       -0.0849862722        0.0862508450
 O         -1.6744038504       -0.4878004918        1.2209981359
 C         -0.3657568891        0.5048527637       -0.5254096569
 C          0.4555098161       -0.6726820982       -1.0978227276
 C          1.3575030363       -1.2529879645       -0.0165126428
 C          2.4455179354       -0.2444971780        0.3710951725
 C          1.9417893752        1.1966732176        0.2304638191
 C          0.4489456145        1.2717960950        0.5260627807
 H         -3.2163717492        0.8496387174       -0.9583671486
 H         -2.5015811068       -0.5017477760       -1.8331413066
 H         -3.5763941130       -0.8045885775       -0.4430300240
 H         -0.6482370197        1.1673928540       -1.3484856524
 H         -0.2171875974       -1.4437582000       -1.4805695954
 H          1.0644370587       -0.3217549150       -1.9329747463
 H          0.7426777194       -1.4966732757        0.8510491467
 H          1.8156649541       -2.1794019568       -0.3670509088
 H          2.7533493840       -0.4300531667        1.4011954102
 H          3.3241081237       -0.3816188934       -0.2626670480
 H          2.4878939325        1.8486857173        0.9139472845
 H          2.1232280083        1.5626035545       -0.7825949420
 H          0.2540204209        0.8359723930        1.5078000897
 H          0.1204866178        2.3126524152        0.5527807362
  23
        -28.34234038
 C         -2.6448437490       -0.2119551075       -1.1401349164
 C         -1.7459114813        0.0042492038        0.0514063752
 O         -2.1571596437       -0.0022759577        1.1838786321
 C         -0.2799463778        0.2078429183       -0.2908835174
 C          0.4087753487       -1.1643568479       -0.2554493843
 C          1.8453903120       -1.0526456277       -0.7776003378
 C          2.4792630198        0.2926627635       -0.4024868169
 C          1.8852131544        0.8101219521        0.9028538761
 C          0.4038967251        1.1492725202        0.7118289300
 H         -3.6157706375       -0.5810434049       -0.8206853601
 H         -2.7800600707        0.7419108047       -1.6480644737
 H         -2.1925572528       -0.9072803475       -1.8426105815
 H         -0.2040735844        0.6035623698       -1.3076151615
 H          0.4026327496       -1.5220658314        0.7749304839
 H         -0.1465617579       -1.8872388677       -0.8566409659
 H          2.4339574531       -1.8709889294       -0.3591851481
 H          1.8534515803       -1.1661928010       -1.8634932683
 H          3.5604390311        0.1793235245       -0.3093118318
 H          2.2941682144        1.0276735049       -1.1885481924
 H          2.0040426111        0.0475801233        1.6740684515
 H          2.4225878138        1.6993960050        1.2358470768
 H         -0.1179441021        1.0753756791        1.6678994957
 H          0.3019260447        2.1767413684        0.3563044408
  23
        -28.34219695
 C         -1.4710442729       -0.0671942828        1.5402704959
 C         -1.6215870306       -0.1013736074        0.0441119157
 O         -2.7131311155       -0.1847746885       -0.4671445765
 C         -0.3834405942       -0.0308013567       -0.8413296281
 C          0.5434571760       -1.2522992887       -0.7004829446
 C          1.5932272678       -1.1434788261        0.4016626559
 C          2.3844857794        0.1512282854        0.2640644828
 C          1.4389496741        1.3403092609        0.3785296086
 C          0.3859272588        1.2975827153       -0.7250695911
 H         -2.4555874554       -0.1286893457        1.9986180645
 H         -0.8666688717       -0.9043194804        1.8783916786
 H         -0.9895315661        0.8560203360        1.8505144088
 H         -0.7998444499       -0.0667119916       -1.8563556835
 H         -0.0651348592       -2.1473962381       -0.5519823337
 H          1.0704128835       -1.3713176935       -1.6505057021
 H          1.1309617402       -1.1748369550        1.3889347632
 H          2.2645655933       -2.0023071454        0.3296035727
 H          3.1508373854        0.2061326559        1.0397560942
 H          2.8854223035        0.1734075886       -0.7062926380
 H          0.9745637702        1.3317922025        1.3651977639
 H          1.9989319951        2.2741960438        0.2904723458
 H         -0.3281347439        2.1141323593       -0.5943915132
 H          0.8963529597        1.4614629478       -1.6775162633
  23
        -28.34198430
 C         -2.7544094436       -0.5408952079       -0.7437849048
 C         -1.6545894311        0.0552712866        0.1004750054
 O         -1.8047017173        0.3138652902        1.2674035430
 C         -0.3454695677        0.2841721880       -0.6370361228
 C          0.3913620125       -1.0709868295       -0.7065867011
 C          1.8893683783       -0.8451894998       -0.8759190900
 C          2.4824050100       -0.1982047062        0.3810729739
 C          1.4568388686        0.7011719169        1.0798879523
 C          0.5198092178        1.3433246150        0.0638738641
 H         -3.0993585205        0.2108029686       -1.4518446808
 H         -2.3852543212       -1.3929325014       -1.3082760843
 H         -3.5881956874       -0.8441105855       -0.1161125929
 H         -0.5731239012        0.6139325051       -1.6553765715
 H          0.2171322188       -1.6360783381        0.2114767014
 H          0.0041319679       -1.6600511942       -1.5399687835
 H          2.3865940787       -1.7960420714       -1.0758124349
 H          2.0513940034       -0.2020431987       -1.7431965408
 H          2.8128729125       -0.9722720957        1.0759874310
 H          3.3613404612        0.3859351560        0.1017612988
 H          0.8572079654        0.1220764067        1.7825585876
 H          1.9717735432        1.4753846882        1.6506252701
 H         -0.1339789323        2.0555264615        0.5702991475
 H          1.1065758832        1.8910507032       -0.6759215041
  23
        -28.34190052
 C         -2.6269028769       -0.8349604540       -0.6379164293
 C         -1.6738008834        0.0764318218        0.0985553488
 O         -1.9510475963        0.5626973246        1.1651472547
 C         -0.3440170908        0.3111277370       -0.6029822503
 C          0.3937743572       -1.0336810217       -0.7587435548
 C          1.8879843697       -0.7888051076       -0.9391191493
 C          2.4972369022       -0.2101542197        0.3434837101
 C          1.4759636616        0.6368444510        1.1111241674
 C          0.5208260682        1.3332460444        0.1493547127
 H         -3.6284935379       -0.7268053736       -0.2296652986
 H         -2.6326139627       -0.6193479720       -1.7026440440
 H         -2.3085661027       -1.8666027984       -0.4993009615
 H         -0.5722862307        0.7016211938       -1.6009506228
 H          0.2416486520       -1.6483439777        0.1308333509
 H         -0.0035261974       -1.5791396575       -1.6161275917
 H          2.3882502018       -1.7230030519       -1.2005533676
 H          2.0326739296       -0.0962559746       -1.7705529846
 H          2.8477229212       -1.0198109779        0.9862501602
 H          3.3652004225        0.3988352361        0.0842108145
 H          0.8922196441        0.0098974185        1.7865540180
 H          1.9941240879        1.3774952619        1.7219107143
 H         -0.1353845256        2.0039288742        0.7065709395
 H          1.0943606991        1.9322871004       -0.5599411921
  23
        -28.34177191
 C         -2.3483593557        1.1063951803        0.0730643747
 C         -1.4274100895       -0.0872437402        0.1627908949
 O         -1.5650188882       -0.9276519953        1.0150162610
 C         -0.3532525802       -0.1593849446       -0.9162101227
 C          0.5503276188       -1.3921766313       -0.7483371970
 C          1.8912226217       -1.0406503129       -0.0990872632
 C          1.6774019166        0.0088934438        0.9847246577
 C          1.2393641459        1.3393047426        0.3597952561
 C          0.4901243661        1.1203389475       -0.9588047191
 H         -1.8780118967        1.9531430301        0.5699233135
 H         -2.5504433889        1.3788318576       -0.9587465426
 H         -3.2788859315        0.8866976247        0.5908109129
 H         -0.9040005976       -0.2397748996       -1.8616830170
 H          0.0247853682       -2.1092975274       -0.1145300123
 H          0.7240170290       -1.8644033225       -1.7166185457
 H          2.3321087434       -1.9412872412        0.3306551949
 H          2.5905486295       -0.6564178775       -0.8448696115
 H          0.9081935652       -0.3544664582        1.6675384244
 H          2.5915929427        0.1535758516        1.5626800012
 H          0.6055598925        1.8774326205        1.0674194370
 H          2.1119804380        1.9665703280        0.1651044974
 H         -0.1314879176        1.9874335413       -1.1849489438
 H          1.2070800026        1.0162385590       -1.7752840116
  23
        -28.34170391
 C         -2.6473560705       -0.0618773712       -1.1426178650
 C         -1.7452205581        0.0000565670        0.0655835038
 O         -2.1540653230       -0.1490531822        1.1889251635
 C         -0.2805857653        0.2385682814       -0.2534812324
 C          0.3529354106       -1.1260591898       -0.6086450104
 C          1.8456413638       -1.1585649627       -0.2630724052
 C          2.4685784867        0.2167400922       -0.4715172720
 C          1.8964138296        1.2156138469        0.5423789612
 C          0.4578487431        0.8595028850        0.9306291616
 H         -2.7297494616        0.9349134924       -1.5725440613
 H         -2.2252099748       -0.7216336133       -1.8963624134
 H         -3.6373293656       -0.4079901333       -0.8576551095
 H         -0.2086714024        0.9083743591       -1.1151612125
 H         -0.1608157569       -1.9200249668       -0.0618591222
 H          0.2172533495       -1.3165048044       -1.6751629451
 H          1.9851582702       -1.4565211205        0.7769121757
 H          2.3450556306       -1.9010295554       -0.8880688084
 H          3.5530159148        0.1597065652       -0.3657904065
 H          2.2569799659        0.5492655855       -1.4899337957
 H          2.5135761748        1.2249259995        1.4422570289
 H          1.9277989662        2.2200205825        0.1156501205
 H          0.4445119062        0.1478269204        1.7563983399
 H         -0.0717749892        1.7522751306        1.2673999826
  23
        -28.34157848
 C         -2.8953430555        0.4604759177       -0.5649593409
 C         -1.6477199614       -0.1218951785        0.0497254067
 O         -1.6766177195       -0.8482409142        1.0109030756
 C         -0.3502454740        0.2929358804       -0.6247869655
 C          0.5253641223       -0.9409706086       -0.9200972460
 C          1.4685411396       -1.2324272811        0.2402272700
 C          2.4878065504       -0.0996166656        0.4054849790
 C          1.8818363304        1.2558993449        0.0215293901
 C          0.3861200891        1.2706497574        0.3121062264
 H         -2.8087253161        1.5439604870       -0.6130485724
 H         -3.0034590488        0.0849742472       -1.5809612506
 H         -3.7709615875        0.1856335244        0.0172199519
 H         -0.5804479425        0.8006937919       -1.5657096349
 H         -0.1172097568       -1.8051017890       -1.1010837618
 H          1.1082479129       -0.7646327731       -1.8264131660
 H          0.8729670559       -1.3460403946        1.1460170423
 H          1.9887305215       -2.1760374550        0.0676417018
 H          2.8272854272       -0.0734043826        1.4422980776
 H          3.3624545732       -0.2910400748       -0.2194375514
 H          2.3756421338        2.0554477397        0.5762457439
 H          2.0368557113        1.4514052091       -1.0416119976
 H          0.2204686679        0.9759601777        1.3499214908
 H         -0.0191995824        2.2761260538        0.1812358146
  23
        -28.34153352
 C         -2.6235196541        0.9914815735       -0.5030448490
 C         -1.7470394537       -0.1391812900       -0.0158556259
 O         -2.1948087870       -1.0545820090        0.6274460247
 C         -0.2726860437       -0.0120250264       -0.3611622715
 C          0.4791601898       -1.3288612874       -0.1222005757
 C          1.9390135878       -1.0956528599        0.2752448376
 C          2.4916379527        0.1238511848       -0.4538151320
 C          1.7805266053        1.3961151242        0.0238890005
 C          0.3487159891        1.1054478393        0.4885285335
 H         -2.1683128504        1.5441288974       -1.3187653368
 H         -3.5875535566        0.5942509085       -0.8119722499
 H         -2.8040059115        1.6701673818        0.3296534319
 H         -0.1991273447        0.2829813329       -1.4128458256
 H         -0.0357480970       -1.8864897321        0.6624185997
 H          0.4355766539       -1.9299384093       -1.0325420391
 H          2.0204764222       -0.9349534547        1.3514595752
 H          2.5286260352       -1.9806257085        0.0311776072
 H          3.5657390427        0.2142471942       -0.2844674193
 H          2.3401274535       -0.0109862284       -1.5267995291
 H          2.3328072593        1.8423744573        0.8528357908
 H          1.7628632207        2.1267624764       -0.7872584541
 H          0.3462057549        0.7846484723        1.5313128753
 H         -0.2478043263        2.0163259248        0.4211363995
  23
        -28.34127009
 C         -2.5828374519        0.8760555643       -0.1324420604
 C         -1.4261530070       -0.0503013990        0.1550325302
 O         -1.3907407988       -0.7341954695        1.1459679594
 C         -0.3514003860       -0.0784308583       -0.9243881168
 C          0.5302566147       -1.3368049301       -0.8258852593
 C          1.8974597932       -1.0473360718       -0.2035256733
 C          1.7311578498       -0.1049438249        0.9823470362
 C          1.2400190568        1.2721829208        0.5146378567
 C          0.5152166524        1.1864489646       -0.8305563034
 H         -3.1451195777        1.0651784455        0.7783155787
 H         -2.2493752112        1.8133780807       -0.5673534793
 H         -3.2405650529        0.3847960826       -0.8485938296
 H         -0.8716515896       -0.0620214369       -1.8883860786
 H          0.0112636610       -2.0677263307       -0.2025340978
 H          0.6636640440       -1.7749856350       -1.8165980981
 H          2.3487492011       -1.9852883845        0.1239936082
 H          2.5687006902       -0.6001766955       -0.9398203860
 H          1.0023912994       -0.5433165284        1.6648151319
 H          2.6739966039       -0.0014605287        1.5216355594
 H          0.5672005584        1.6892511349        1.2665006380
 H          2.0823781033        1.9598144123        0.4118558010
 H         -0.0930079673        2.0805692260       -0.9790184902
 H          1.2425399961        1.1537621770       -1.6436999492
  23
        -28.34098109
 C         -2.2876341846        0.2992076420        1.1738383189
 C         -1.7578325855       -0.1147754331       -0.1759157301
 O         -2.4805912197       -0.5327477097       -1.0463958677
 C         -0.2590787698        0.0003211663       -0.3817187083
 C          0.4103619412       -1.2670804461        0.1940733657
 C          1.8719064373       -1.0031746501        0.5718626806
 C          2.4942048822        0.0046484854       -0.3875815089
 C          1.8272338389        1.3775257997       -0.2284753701
 C          0.3710280257        1.2473995713        0.2361420583
 H         -1.6595524766       -0.0766431317        1.9763766482
 H         -2.2951921539        1.3864523940        1.2280326429
 H         -3.3050764783       -0.0630293290        1.2962980724
 H         -0.0908623212        0.0252346225       -1.4630231489
 H         -0.1339898658       -1.6139413485        1.0750841554
 H          0.3539394314       -2.0600037595       -0.5528296528
 H          1.9363249120       -0.6122585215        1.5889995972
 H          2.4275621691       -1.9418717229        0.5465504735
 H          3.5659697358        0.0896303097       -0.2020210057
 H          2.3670576006       -0.3594478896       -1.4085290204
 H          2.3776721612        1.9766023127        0.4993690742
 H          1.8639691729        1.9077881350       -1.1815420706
 H          0.3353387199        1.1765878334        1.3236612091
 H         -0.1865339082        2.1381050651       -0.0593168488
