! r2scan-3c def2/J RI DEFGRID2 scfconv6 printgap
%output
    printlevel normal
end
* xyz 0 1
C 3.72323351 -0.1772563058 -0.0636396955
C 2.2500085309 -0.3283461329 0.3045665912
H 2.1774007946 -0.5480596315 1.3763946743
C 1.6011207075 -1.4732721535 -0.4701904497
C 0.123239202 -1.5998731195 -0.1162749885
C -0.6443720041 -0.306430697 -0.4080747981
H -0.5187653547 -0.0638413893 -1.4687416185
C 0.0007354281 0.833538135 0.3928846357
H -0.0679165119 0.6012351368 1.4684987555
C 1.4827036131 0.9612028087 0.0224780919
O -0.6813709855 2.0457047775 0.1299463294
C -2.1572780214 -0.4953792678 -0.1593070938
C -2.5526907167 -0.3554429171 1.3087883135
C -2.981718502 0.4675241996 -1.0119908248
H 3.8285098805 0.0470022656 -1.1230381736
H 4.1813027881 0.6291958429 0.5048339778
H 4.2649585074 -1.0964752043 0.1473347045
H 1.703372523 -1.2844936659 -1.5414000992
H 2.1153877917 -2.4103375787 -0.2456056859
H -0.3176189382 -2.416455818 -0.691694183
H 0.0260104389 -1.849349899 0.9427841807
H 1.5583043453 1.2102505279 -1.0388629428
H 1.9243169245 1.7856995602 0.5919226638
H -0.188628951 2.7661683293 0.537388854
H -2.4017780435 -1.5171852512 -0.4767997498
H -3.5945747403 -0.6410379665 1.4380217224
H -2.4418174118 0.6757980777 1.6321877098
H -1.9457226088 -0.9959441469 1.944698635
H -4.0436559797 0.3214101451 -0.8255837301
H -2.7934592039 0.2992777486 -2.0702190107
H -2.7190728419 1.4927858142 -0.7724573471
*
