! pbe def2-sv(p) def2/J RI DEFGRID1 loosescf d4 GCP(DFT/SV(P)) printgap
%output
    printlevel normal
end
* xyz 0 1
C -2.1829847634 -1.236168496 0.04894573
C -1.1703125307 -0.3624879431 0.8251385097
H -1.6144995754 -0.0938973426 1.7906659369
C -0.841515094 0.9294763172 0.0572968467
H -1.0270906148 0.7785939675 -1.0173199072
C 0.6366663091 1.3012785452 0.2303852646
H 0.8573062241 1.4425151036 1.2984693106
C 1.5065261054 0.1631877888 -0.306150583
H 1.3836302751 0.131540239 -1.3960572249
C 1.0360626792 -1.1909737735 0.2801635146
H 1.8635172625 -1.611325838 0.8712745801
O -0.0090629009 -1.0999297504 1.1974202359
O 0.7232964552 -2.0487071403 -0.7945180506
O 2.8405825548 0.4113307815 0.0516777911
O 0.9306310798 2.4607487135 -0.4977632395
O -1.6003659427 2.0249341833 0.5262393893
O -1.9223768323 -1.3317223115 -1.3225850724
H -3.1780536391 -0.7919010838 0.1356292943
H -2.2052264802 -2.2293777841 0.5210083685
H 0.5427656365 -2.932266008 -0.4475360458
H 3.4306020647 0.0218319109 -0.6008727208
H 0.2958846114 3.1341326712 -0.2215777363
H -2.5246971882 1.8861293311 0.296189569
H -1.0038531698 -1.6345943996 -1.4381138657
*
