! pbe def2-sv(p) def2/J RI DEFGRID1 loosescf d4 GCP(DFT/SV(P)) printgap
%output
    printlevel normal
end
* xyz 0 1
C 0.7462773307 -1.1714955119 0.316702636
C -0.7872396036 -1.2185491846 0.0998453328
N -1.2956156337 0.0154593576 -0.4714975146
C -0.774773855 1.1575342417 0.2532556483
C 0.7709804979 1.2264246109 0.1902035548
N 1.2560009812 -0.0127068035 -0.396161405
H 1.2214229032 -2.0647449124 -0.0927381678
H 0.9765187061 -1.1247163872 1.3959614165
H -1.0586399629 -2.0355584012 -0.5698157338
H -1.2969969407 -1.3766903477 1.0552673595
H -0.9792462671 0.0803065103 -1.435373021
H -1.2173819045 2.0630334019 -0.1654704579
H -1.1088578646 1.0637969004 1.2904988343
H 1.0966960709 2.0457454689 -0.4557274326
H 1.1804796474 1.402091536 1.2007721494
H 2.2698734807 -0.0189916465 -0.4141755739
*
