! pbe def2-sv(p) def2/J RI DEFGRID1 loosescf d4 GCP(DFT/SV(P)) printgap
%output
    printlevel normal
end
* xyz 0 1
C -2.3530091181 0.8577215038 -0.166034306
C -1.8978786337 -0.4863839266 0.3867458338
C -0.6626541112 -1.0145403192 -0.3188241324
Br 0.9022884481 0.1102627589 0.0218576923
H -3.2446536819 1.1975753769 0.3544241809
H -1.575132137 1.6072199223 -0.0360850358
H -2.5825531924 0.7783520539 -1.2270540411
H -2.6926743008 -1.2267994042 0.2569969117
H -1.6966250308 -0.3960586389 1.4567360193
H -0.792820222 -1.0267077596 -1.4004801324
H -0.3929249439 -2.0100051559 0.0318282539
*
