! r2scan-3c def2/J RI DEFGRID2 scfconv6 printgap
%output
    printlevel normal
end
* xyz 0 1
C -2.0937858102 -1.1950177382 -0.2199436973
C -1.2636669332 -0.3421342361 0.7599155033
H -1.8645596921 -0.1726632044 1.6588750163
C -0.9236739909 1.0348467253 0.1631707024
H -1.2052896205 1.0532631778 -0.9020610087
C 0.5854129076 1.2894666866 0.242085773
H 0.8925472578 1.3624605501 1.2976462662
C 1.3020500582 0.1000288969 -0.3994253878
H 0.914804158 -0.0413439397 -1.4192753902
C 0.9952754963 -1.1569508433 0.4344812903
H 1.8322265715 -1.3337919881 1.1297840478
O -0.118989311 -1.0328896028 1.2603146667
O 0.8800785828 -2.2456401893 -0.4550928098
O 2.6803087252 0.3850865189 -0.4350725971
O 0.8647822089 2.4893534765 -0.4308923517
O -1.6421798589 2.0123880588 0.8685546183
O -1.5438837502 -1.2951146864 -1.5043456698
H -3.0671351526 -0.7161449251 -0.3434128395
H -2.2414054677 -2.1891132618 0.2259949849
H 0.6690418682 -3.0397435275 0.0523713425
H 3.1364538464 -0.331203871 -0.8894360878
H 1.8191249708 2.521338727 -0.5719296276
H -1.3186063427 2.8723444312 0.5713499525
H -0.6835353096 -1.7421794587 -1.4350331166
*
