! pbe def2-sv(p) def2/J RI DEFGRID1 loosescf d4 GCP(DFT/SV(P)) printgap
%output
    printlevel normal
end
* xyz 0 1
C 3.4185738981 -0.6739465332 -0.2385126314
C 2.1871814233 -0.1902424401 0.5245514681
H 2.5043344894 0.0901459188 1.5346097445
C 1.1286791807 -1.2987798271 0.6455913687
C 0.1332237075 -1.2573596067 -0.5100330463
C -0.6770283979 0.0505592537 -0.5416481513
H -0.78174947 0.3542389151 -1.5929342648
C 0.0993751147 1.1858182788 0.152802751
H -0.0469443675 1.1508645916 1.2356533142
C 1.5907898842 1.0467853782 -0.1603595065
O -0.4015527278 2.4523975469 -0.217359015
C -2.1128111641 -0.0557892951 0.0114510706
C -3.0192133033 -0.8055361742 -0.9644734075
C -2.1994570884 -0.6959973029 1.3947735661
H 3.9058420867 -1.4868170699 0.2955275912
H 3.1403971353 -1.0316091275 -1.2276352592
H 4.135157371 0.1361439627 -0.3560318444
H 1.6238596422 -2.2718226833 0.6636457363
H 0.5893453279 -1.1905294828 1.5862346542
H 0.6844549115 -1.3655129429 -1.4463106566
H -0.5408844326 -2.1111474248 -0.440577311
H 1.7130821565 0.9685518318 -1.2446111197
H 2.1132150339 1.9474396235 0.1674039382
H -0.2818983335 2.5613887779 -1.1681739773
H -2.481522057 0.9736581946 0.0936139675
H -4.0413265767 -0.8206801154 -0.5930512527
H -2.6899091175 -1.8347571732 -1.0900602665
H -3.0192555151 -0.3253612989 -1.9407904476
H -1.8725309021 -1.7325820865 1.3709990748
H -3.2305673811 -0.6763972 1.741603028
H -1.5949412456 -0.1547317467 2.1176384701
*
