! pbe def2-sv(p) def2/J RI DEFGRID1 loosescf d4 GCP(DFT/SV(P)) printgap
%output
    printlevel normal
end
* xyz 0 1
C 0.5305522993 -0.8907819452 -1.257511342
C 0.4027378073 -0.0205304972 1.78286e-05
C 1.5011229174 1.0470779058 0.0010571429
C 0.5292848433 -0.8920086052 1.2567969936
O -0.8080516153 0.737240892 -0.0002807033
C -2.022108986 0.0323236597 -8.39529e-05
H 1.5373676306 -1.2939846077 -1.3214496558
H -0.168595019 -1.7235999307 -1.2352734986
H 0.3357809664 -0.2912666237 -2.143812933
H 1.3994240042 1.6744574475 0.8820082461
H 1.3999538601 1.6755802957 -0.8791524169
H 2.4841591111 0.585416205 0.001053155
H 0.3326624494 -0.2935774406 2.1434347971
H -0.1691700962 -1.7253674931 1.2325580801
H 1.5363280676 -1.2944558698 1.321926176
H -2.1403206692 -0.5927801588 -0.8916355909
H -2.8003916728 0.7945101934 -0.001108598
H -2.1409708717 -0.5910457476 0.8926110838
*
