! pbe def2-sv(p) def2/J RI DEFGRID1 loosescf d4 GCP(DFT/SV(P)) printgap
%output
    printlevel normal
end
* xyz 0 1
C -2.3263406589 -1.212898786 0.1362347025
N -1.60876331 0.0387495767 0.1944377013
C -2.3642363226 1.1549448694 -0.3274697826
C -0.2266840268 0.0224992611 0.066872915
C 0.5239516328 1.2019032318 0.1594846978
C 1.9022888987 1.1813177454 0.101682238
C 2.5894531183 -0.0110365849 -0.0495201524
C 1.8652333664 -1.1854002438 -0.1405710549
C 0.4844421673 -1.17416837 -0.0868619543
H -3.3631432039 -1.0318791139 0.4186311138
H -1.9021137469 -1.9160378436 0.8517358456
H -2.3172646791 -1.6682268239 -0.8635569286
H -1.9074097393 2.0997549041 -0.0501895568
H -3.3673977813 1.1324870804 0.0990288852
H -2.4517703515 1.1181148044 -1.4221811637
H 0.034434184 2.1534024195 0.2940985476
H 2.4463192025 2.1121232559 0.1784870472
H 3.667705194 -0.0229723869 -0.0958831215
H 2.3783014323 -2.1288627944 -0.2633728876
H -0.0345691695 -2.1142354237 -0.1787535587
*
