! r2scan-3c def2/J RI DEFGRID2 scfconv6 printgap
%output
    printlevel normal
end
* xyz 0 1
C -1.6248186348 -0.4983923924 -1.7034e-06
C -0.6178463184 0.6522303989 -6.2306e-05
C 0.7445012122 0.1578169703 0.0001662435
C 1.8599011148 -0.2747829321 -6.05458e-05
H -2.6406554549 -0.1089715441 -0.0004714391
H -1.490229456 -1.1204275598 0.8822464216
H -1.4896368947 -1.1210271099 -0.8817378111
H -0.766090928 1.2773248038 0.8857440591
H -0.7659373358 1.2771260109 -0.8860390555
H 2.8417775754 -0.6434234779 -0.0002389687
*
