! pbe def2-sv(p) def2/J RI DEFGRID1 loosescf d4 GCP(DFT/SV(P)) printgap
%output
    printlevel normal
end
* xyz 0 1
C -1.8179253742 -1.0749371137 -0.6310848439
C -1.0178250417 -0.4782899797 0.5446208278
H -1.6437838781 -0.5300081249 1.4465870057
C -0.6988351271 1.006178708 0.3160723715
H -1.5396977778 1.4382181269 -0.2465070512
C 0.6003778495 1.239340818 -0.494494833
H 0.8799342635 2.2969057346 -0.3759255527
C 1.7275909203 0.3738872608 0.0936534299
H 2.6140806025 0.4418894776 -0.5454010194
C 1.2732519758 -1.0988851012 0.135105833
H 2.0281250458 -1.6837803452 0.6830894955
O 0.1067340021 -1.2773524611 0.8845329073
O 1.1442713021 -1.5629999178 -1.1851015354
O 2.1091790745 0.8030042886 1.3680230783
O 0.4240574483 1.0333295356 -1.8669518717
O -0.5977982063 1.6028800058 1.5972144157
O -3.1045466238 -0.5249373914 -0.7182975456
H -1.8594088153 -2.1659922172 -0.4964115729
H -1.3406256963 -0.8507635431 -1.5862784452
H 0.8944546844 -2.4944896318 -1.1697189706
H 1.31642583 0.8148588783 1.928863295
H 0.6002449355 0.1013315775 -2.061266321
H -0.4594607812 2.5514632216 1.4938168636
H -3.584403135 -0.7033576784 0.0989711576
*
