! r2scan-3c def2/J RI DEFGRID2 scfconv6 printgap
%output
    printlevel normal
end
* xyz 0 1
C -0.6116176039 0.0191175648 0.4635046524
C 0.6115577351 -0.0027187582 -0.463866837
O 1.8234579915 0.0496991708 0.2431322854
O -1.8237207722 0.0243181549 -0.2452328465
H -0.6065618908 0.9345679695 1.0589685688
H -0.5646286363 -0.8431332664 1.1498167265
H 0.6007112549 0.8782095206 -1.1092453422
H 0.5701520966 -0.9020358703 -1.1012711915
H 1.8623483342 -0.6897843775 0.8604553325
H -1.8571363311 -0.7481968967 -0.8210636949
*
