! pbe def2-sv(p) def2/J RI DEFGRID1 loosescf d4 GCP(DFT/SV(P)) printgap
%output
    printlevel normal
end
* xyz 0 1
C -2.9596493389 -0.8246408356 0.5382571981
C -1.9476769131 -0.36344289 -0.5122303994
H -2.4979443058 -0.1875850522 -1.4460793525
C -0.84745529 -1.3951432819 -0.7714547955
C 0.2144904514 -1.3652362593 0.3252065452
C 0.8515601024 0.0326514686 0.5046592007
H 0.7437508634 0.3288018778 1.552574357
C 0.1224429872 1.0931378257 -0.3400511331
C -1.362843055 0.9829600814 -0.1181359786
O -2.0336969382 1.8798582291 0.327933161
C 2.3286999242 0.0060864677 0.1895822598
C 3.2326689013 0.1552214138 1.1448446244
C 2.7240845283 -0.210125693 -1.2408886341
H -2.4605329339 -1.0602446135 1.4750102912
H -3.6771636358 -0.0300094051 0.7259327526
H -3.4923652384 -1.7081146132 0.1942476342
H -1.2918715695 -2.3917468298 -0.8171889223
H -0.3828595712 -1.204671627 -1.741063201
H -0.2442202575 -1.6724214229 1.2658016796
H 0.9909980052 -2.0983741617 0.0982973435
H 0.4661618466 2.0902555165 -0.0612877361
H 0.3227825467 0.9343035895 -1.3998982507
H 4.2892237651 0.1168816113 0.939367438
H 2.9562319544 0.322907474 2.171902877
H 2.1179972693 -0.9861322527 -1.7036526506
H 2.5927560923 0.7086281205 -1.8124973247
H 3.7699956142 -0.4979772396 -1.3078407252
*
