! r2scan-3c def2/J RI DEFGRID2 scfconv6 printgap
%output
    printlevel normal
end
* xyz 0 1
C 1.6715998864 -1.0475273151 -0.1732139069
C 1.0497046621 0.2801927991 0.2358761981
C -0.4450604511 0.3497527662 0.0444853367
O -1.087106017 1.3664344634 0.0720424051
O -1.0145041596 -0.8457499928 -0.1458952294
H 1.4854473623 -1.2489810188 -1.2248588264
H 2.7460042299 -1.0181692347 -0.0101179892
H 1.252035682 -1.8625687203 0.4096759538
H 1.2376475441 0.4761919505 1.2953354309
H 1.4877654235 1.1092519828 -0.3236014082
H -1.9736249119 -0.7448059415 -0.2509567064
*
