! pbe def2-sv(p) def2/J RI DEFGRID1 loosescf d4 GCP(DFT/SV(P)) printgap
%output
    printlevel normal
end
* xyz 0 1
C -2.2086570864 -1.2188759326 0.110904314
C -0.8440545873 -0.5883742664 0.4294712286
H -0.8055939853 -0.3160298174 1.4980677443
C -0.6128231805 0.6839272774 -0.3942293999
H -0.648503611 0.4035004069 -1.4629348272
C 0.7788880377 1.2733889542 -0.0836045609
H 0.648938975 2.0553818066 0.6760469212
C 1.7375250071 0.2172321748 0.4901317051
H 2.7603062305 0.5142163453 0.2104620601
C 1.4320534218 -1.1378751267 -0.165300665
H 2.0875477032 -1.9306571776 0.2244864193
O 0.1304716455 -1.5803552201 0.1552604095
O 1.662099804 -1.0856820555 -1.5341961401
O 1.5832646441 0.1877404583 1.8857801973
O 1.3753357621 1.7910891869 -1.2537674609
O -1.5658524472 1.6799529936 -0.1267618589
O -3.2861080487 -0.4077475119 0.5218286227
H -2.2482990708 -2.2095872323 0.5761751176
H -2.3132945968 -1.3421929796 -0.9693045154
H 1.5110404048 -0.1858505356 -1.8627787431
H 2.1412407858 -0.5089385845 2.2497957541
H 0.8289013163 2.5194687225 -1.5709713349
H -2.4400591265 1.2585046735 -0.0850735012
H -3.293962127 -0.3612140252 1.4851290259
*
