! pbe def2-sv(p) def2/J RI DEFGRID1 loosescf d4 GCP(DFT/SV(P)) printgap
%output
    printlevel normal
end
* xyz 0 1
C -1.7082026434 -1.0433547943 -0.7130254206
C -1.0542246424 -0.5102968761 0.5779044141
H -1.7611172693 -0.6568775614 1.4114107539
C -0.740660488 0.9888333823 0.4671990933
H -1.6302374404 1.4892531417 0.0476912479
C 0.4683368353 1.2545524185 -0.4513600729
H 0.7799396119 2.2983200189 -0.2735044442
C 1.6525800621 0.3653980191 -0.0355452075
H 2.3854983335 0.3647938197 -0.8475717453
C 1.2408222579 -1.1043980444 0.1936834652
H 2.0239686763 -1.5680713702 0.8172540229
O 0.0781617565 -1.2609678514 0.97272383
O 1.1446464127 -1.7410637735 -1.0409851032
O 2.2843835228 0.880273417 1.1016794115
O 0.1890909126 1.0477698577 -1.8067787586
O -0.4119785195 1.5466877151 1.7240899829
O -2.9377845239 -0.4080447019 -0.9693098932
H -1.8335032928 -2.1296859895 -0.6158402986
H -1.0649450701 -0.8350130935 -1.5691579374
H 0.9289301506 -2.6707147095 -0.9008162437
H 1.5966596154 1.0864950968 1.7531493299
H -0.5817918785 1.5705644128 -2.0581419481
H -1.0776238767 1.2920007855 2.3732940503
H -3.581996241 -0.6802977597 -0.3058641566
*
