! r2scan-3c def2/J RI DEFGRID2 scfconv6 printgap
%output
    printlevel normal
end
* xyz 0 1
C -2.6377153893 -1.380031123 -0.4551511349
C -1.9427523288 -0.2345246292 0.2733737352
C -0.4456719145 -0.2162578501 0.1186651025
C 0.3150003388 -1.3672872332 -0.0098211699
C 1.6929084453 -1.3143291412 -0.1425014423
C 2.3374510291 -0.0921849774 -0.1485664802
C 1.600293503 1.0710371926 -0.0167180019
C 0.2205257759 1.0153929942 0.1198558324
O -0.5212753078 2.1548125011 0.2566497436
H -2.3291265718 -1.4109487392 -1.4977565259
H -3.7157029975 -1.2391376473 -0.4186308749
H -2.4105107728 -2.3394046546 0.0027856422
H -2.1831310695 -0.2850353978 1.3402739767
H -2.3287018749 0.7175011076 -0.0955253037
H -0.1745539811 -2.3284376781 -0.0063904678
H 2.2597500839 -2.2278032703 -0.2414445339
H 3.4106716048 -0.0378788473 -0.2540325713
H 2.0964566625 2.0336850619 -0.0187929834
H 0.063883752 2.9208236031 0.2241304698
*
