! r2scan-3c def2/J RI DEFGRID2 scfconv6 printgap
%output
    printlevel normal
end
* xyz 0 1
C -0.781493389 -1.7131377199 5.12911e-05
C 0.5381981482 -1.3013617245 1.25335e-05
C 0.83971263 0.0597666535 -7.98158e-05
C -0.1899175044 0.9994576715 -8.70995e-05
C -1.5123605456 0.5813470598 -1.48611e-05
C -1.8042216733 -0.7829802976 3.52866e-05
O -2.5504578557 1.4546702248 5.8832e-06
C 2.2388221906 0.5017162686 -0.0001877922
O 3.2010523589 -0.2222602649 0.0002143975
H -1.0200307705 -2.7657631701 7.78919e-05
H 1.3507303669 -2.0110551798 3.78521e-05
H 0.0466324195 2.0562535857 -0.000139481
H -2.8392048835 -1.0858738737 4.59905e-05
H -2.2239328716 2.3627750982 -1.13623e-05
H 2.3575825899 1.6050806085 -0.0002846247
*
