! pbe def2-sv(p) def2/J RI DEFGRID1 loosescf d4 GCP(DFT/SV(P)) printgap
%output
    printlevel normal
end
* xyz 0 1
C 2.7499494234 -0.813918239 0.1413132248
C 1.9581034956 0.4573743707 -0.1308100437
C 0.4750297628 0.2436294706 -0.0615934238
C -0.423569944 1.2887331773 -0.2988616723
N -1.7309631699 1.1195171329 -0.2416832385
C -2.1719560912 -0.0967257313 0.0537114314
C -1.2907096779 -1.1396640236 0.290765104
N 0.0213539097 -0.9680132278 0.2328528637
H 3.8167970007 -0.6130540879 0.0815964616
H 2.4926547173 -1.5792662454 -0.5853390862
H 2.5164532872 -1.1970762645 1.1304932773
H 2.2039340531 0.8488825131 -1.1224085632
H 2.2282978518 1.2306452057 0.5946396187
H -0.0797191554 2.2861442611 -0.5408169728
H -3.2446968006 -0.2218745197 0.097061394
H -1.6297671048 -2.1380220168 0.5327381493
*
