! pbe def2-sv(p) def2/J RI DEFGRID1 loosescf d4 GCP(DFT/SV(P)) printgap
%output
    printlevel normal
end
* xyz 0 1
C -2.3934455916 -0.8644685602 0.3944795226
C -0.9439450832 -0.4229630744 0.6358749415
H -0.7166231171 -0.5065595207 1.7096329666
C -0.7356425362 1.0429206611 0.2034351947
H -1.5011327172 1.3077718101 -0.5377374955
C 0.6463580505 1.2311589598 -0.4593712601
H 0.9399621469 2.2886620894 -0.3424969179
C 1.6690679184 0.3476718228 0.2701610023
H 2.6631283666 0.4475291838 -0.1859998106
C 1.2566704165 -1.1427371216 0.0875702509
H 1.5927412608 -1.7043932988 0.9741224556
O -0.1297487464 -1.300872025 -0.107369823
O 1.8818531008 -1.7022438995 -1.0149910481
O 1.8167680696 0.7259218484 1.6103294681
O 0.5381076898 0.8949368511 -1.8213393994
O -0.8456275636 1.828032274 1.373003476
O -2.7653577624 -0.7092629614 -0.9454446577
H -3.067641192 -0.2423716681 0.9861471841
H -2.4920649338 -1.9115097467 0.710957165
H 1.3665467288 -1.4412679947 -1.7914019116
H 0.956672541 0.9976594396 1.9645567732
H 1.3878000148 1.0516003061 -2.2494793684
H -0.9421842801 2.7560004751 1.1317655047
H -2.0910313855 -1.1435786126 -1.4828765554
*
