! r2scan-3c def2/J RI DEFGRID2 scfconv6 printgap
%output
    printlevel normal
end
* xyz 0 1
C -2.0359178749 -0.592565567 -0.6491879494
C -1.2073899763 -0.071716362 0.5532257245
H -1.8536688249 -0.0082185515 1.4371191208
C -0.6300898602 1.3360797897 0.2989309927
H -1.3738219551 1.9099980171 -0.2652559028
C 0.6808776132 1.2956290613 -0.5241011933
H 1.1358582137 2.2912828931 -0.442532174
C 1.6467105134 0.2638537455 0.0817292065
H 2.5082671416 0.1484502132 -0.5930806
C 0.9325296883 -1.0989541096 0.1824433165
H 1.5699402905 -1.8100793208 0.7423115899
O -0.2251117611 -1.0250005678 0.954421534
O 0.7106985633 -1.5808060254 -1.1133445671
O 2.0497854379 0.718077278 1.3520871967
O 0.4650494347 1.0511983717 -1.8856485082
O -0.4379523844 2.0223882631 1.505313072
O -2.0022162698 -2.0012064373 -0.732216556
H -1.6337596755 -0.2263345882 -1.5951890858
H -3.06737811 -0.2334660155 -0.549734768
H -0.1240757705 -2.0890199417 -1.1099607108
H 2.6186717016 0.0580551462 1.7644731589
H 0.513400561 0.0908606458 -2.0311369472
H 0.3716926686 1.681821395 1.915108988
H -2.2502114084 -2.364275197 0.1270230921
*
