! pbe def2-sv(p) def2/J RI DEFGRID1 loosescf d4 GCP(DFT/SV(P)) printgap
%output
    printlevel normal
end
* xyz 0 1
C 1.4843220296 0.580571411 0.0017127118
C 0.8273379565 -0.5619570744 -0.0212666087
C -0.6671441548 -0.6818090819 -0.0110285408
O -1.277267618 0.5874695662 0.025440985
H 2.5597595033 0.6187623088 -0.0068928609
H 0.9565858729 1.5175667801 0.0297533187
H 1.3403714958 -1.5141692751 -0.0493899196
H -0.9652765448 -1.2806911908 0.8660110221
H -0.9810814244 -1.2372011064 -0.9109221524
H -2.2324782811 0.4734401022 0.0320370439
*
