! pbe def2-sv(p) def2/J RI DEFGRID1 loosescf d4 GCP(DFT/SV(P)) printgap
%output
    printlevel normal
end
* xyz 0 1
C 1.6060326391 -0.9028547671 -0.0069124228
C 0.4322339389 0.0115460736 0.3300938938
C 0.7164577378 1.4481840682 -0.1164480501
O -0.7052600618 -0.541027843 -0.3119338945
C -1.9385598374 -0.0286657969 0.1145833758
H 1.379247243 -1.9212742128 0.2956606121
H 1.7785358803 -0.8929261966 -1.0794891649
H 2.5040308194 -0.5687225662 0.5048771837
H 0.2634260427 0.0037370698 1.421994396
H -0.0809428111 2.1207602239 0.1902764322
H 0.8074755478 1.4831911505 -1.1994416448
H 1.6456596402 1.7931895402 0.3285718918
H -2.0886095998 1.0102102947 -0.2010364669
H -2.0358851496 -0.0828244804 1.2068737004
H -2.7037578504 -0.6516652271 -0.3457359858
*
