! pbe def2-sv(p) def2/J RI DEFGRID1 loosescf d4 GCP(DFT/SV(P)) printgap
%output
    printlevel normal
end
* xyz 0 1
C -1.9306906956 -1.1948237267 -0.2744086375
C -1.0034160326 -0.498573003 0.7681653901
H -1.4917310608 -0.529728187 1.7481420059
C -0.7473275716 0.9977658479 0.4682657129
H -1.6471137151 1.3982646675 -0.0126791423
C 0.4624411643 1.2194214131 -0.4605711157
H 0.7362987194 2.280508537 -0.3843169664
C 1.6574604363 0.361803965 0.0181858378
H 2.5089465456 0.492867935 -0.6630986139
C 1.2297793087 -1.1172358494 0.0458804358
H 2.0388670171 -1.7331497898 0.4627212155
O 0.1901602184 -1.2511058661 0.9884573997
O 0.9679243728 -1.6296986437 -1.2106851252
O 2.0521548915 0.7594500556 1.3113820189
O 0.1016796171 0.8980137644 -1.795412238
O -0.5901025502 1.7448813971 1.6450458056
O -2.4400604719 -0.3641236507 -1.2821393455
H -2.8101132307 -1.5867340354 0.2402427639
H -1.3840754897 -2.0469736979 -0.6986243661
H 0.4107461166 -1.0015654312 -1.6999308838
H 1.771563008 0.0702984507 1.9316395781
H 0.7486793178 1.2760045766 -2.4008752862
H 0.3113562644 1.6216190152 1.9779176145
H -1.7125605247 0.0201871622 -1.7899705736
*
