  16
        -29.78003595
 C          1.1078238563       -1.8562231667        0.0099242548
 C          2.1047289829       -0.8998663671        0.0133925242
 C          1.7947967565        0.4662702388        0.0076475711
 C          0.4517517760        0.8427262834        0.0025648373
 C         -0.5341531255       -0.1312789619       -0.0004919027
 C         -0.2255080598       -1.4863460144        0.0029187168
 N         -1.9137723770        0.2788064742       -0.0012496163
 O         -2.7624225351       -0.5876849087       -0.0292300659
 O         -2.1511499470        1.4691036383        0.0282586412
 N          2.7827131360        1.4101589949       -0.0550427179
 H          1.3729402640       -2.9021540084        0.0148072894
 H          3.1420991489       -1.2007275386        0.0185380378
 H          0.1681539826        1.8841065399       -0.0015667228
 H         -1.0194391726       -2.2150076522        0.0021961172
 H          3.7193275948        1.1305261930        0.1796108082
 H          2.5367941236        2.3620165558        0.1556420886
