! r2scan-3c def2/J RI DEFGRID2 scfconv6 printgap
%output
    printlevel normal
end
* xyz 0 1
C -1.8839892075 -0.5727686879 0.2465311586
C -0.9257566605 0.3938135923 -0.4443986297
C 0.5107983876 0.0670950055 -0.0710684407
O 0.9824626368 -1.0435570022 -0.1510234262
N 1.2417598638 1.1236158294 0.3610478511
H -1.5754028477 -1.5948496054 0.0435775076
H -1.8708805224 -0.417096811 1.3230567885
H -2.8996374944 -0.4299954249 -0.1143783872
H -1.1672811064 1.4261814801 -0.1879853477
H -1.0141309289 0.2754777064 -1.5268103202
H 0.8669679922 2.0517532632 0.4332614784
H 2.2043549783 0.9721761884 0.6140431455
*
