! pbe def2-sv(p) def2/J RI DEFGRID1 loosescf d4 GCP(DFT/SV(P)) printgap
%output
    printlevel normal
end
* xyz 0 1
C -1.8615683618 -1.176587731 -0.4529989983
C -1.0483992415 -0.5405313102 0.7052926403
H -1.6347561932 -0.6402091081 1.6295257319
C -0.7646641878 0.9630851867 0.5131461321
H -1.6701221693 1.4407021338 0.1077278068
C 0.4038487841 1.1992951456 -0.4566278699
H 0.6525466239 2.2716434007 -0.4264539713
C 1.6406216833 0.3979312941 0.0017082561
H 2.4097353896 0.463967807 -0.7766637496
C 1.2427811162 -1.0888829765 0.1325358462
H 2.0344528439 -1.644161296 0.6496279673
O 0.1261309391 -1.271131099 0.9865695522
O 1.075259661 -1.6624346515 -1.1240941702
O 2.2092835996 0.9112904551 1.1668946602
O 0.0783860557 0.8171867997 -1.7759167202
O -0.4135960957 1.5694401452 1.739309655
O -2.4831772786 -0.1763853739 -1.2495534194
H -2.6231423506 -1.8366575981 -0.0229386915
H -1.1857577382 -1.7870158016 -1.0600891869
H 0.7591418898 -0.9668288229 -1.7295541935
H 1.4971927985 1.0707086265 1.8049575264
H -0.8885783672 0.7839778521 -1.8606541291
H -1.1054924991 1.4041263369 2.3896881137
H -3.030825002 -0.616172114 -1.9087179098
*
