! pbe def2-sv(p) def2/J RI DEFGRID1 loosescf d4 GCP(DFT/SV(P)) printgap
%output
    printlevel normal
end
* xyz 0 1
C -2.0971449519 -1.1926376847 -0.2067023164
C -1.2478415385 -0.3521242329 0.7596933056
H -1.8580029973 -0.2027568965 1.6586603999
C -0.9257362129 1.0495045477 0.1694715615
H -1.215096733 1.0863320451 -0.8857600692
C 0.5834441384 1.2932446289 0.2584532161
H 0.8853017136 1.3341079409 1.3210280047
C 1.2923878747 0.1048336356 -0.3977098485
H 0.9012572 -0.0131122953 -1.421371012
C 0.9986146443 -1.1842870182 0.4018876971
H 1.8352814171 -1.3884722052 1.0828723921
O -0.109687298 -1.03236462 1.2548629469
O 0.9048146143 -2.2906254134 -0.4302185284
O 2.6718507276 0.3964616537 -0.4417912438
O 0.9056920795 2.4956204642 -0.3821042877
O -1.6830331261 2.0437355916 0.8022723993
O -1.4568305428 -1.3070727863 -1.4682973314
H -3.0646908301 -0.6920011844 -0.3179286596
H -2.2482097266 -2.1871834029 0.2320691268
H 0.1211137725 -2.166451951 -0.9961403252
H 3.1357288013 -0.3721390539 -0.7909880765
H 1.8553157184 2.4747697058 -0.5583265035
H -1.2136024219 2.3495089431 1.5867213441
H -2.06473821 -1.7219618731 -2.0894672989
*
