! pbe def2-sv(p) def2/J RI DEFGRID1 loosescf d4 GCP(DFT/SV(P)) printgap
%output
    printlevel normal
end
* xyz 0 1
C -2.3547234666 -0.7861960163 -0.1169542532
C -0.9987388643 -0.2782906571 0.3997792135
H -1.1341981118 0.0875267662 1.4307261719
C -0.5199001655 0.8963658247 -0.4568068496
H -0.5182458061 0.5831341426 -1.5139609338
C 0.9131747241 1.3433070474 -0.0896281198
H 0.8568246557 2.1029188435 0.6989501837
C 1.7728990018 0.1699490089 0.4383489305
H 2.7983135854 0.3086509588 0.0812021867
C 1.1995252368 -1.1452111163 -0.100421536
H 1.7935011859 -1.9967336506 0.268089287
O -0.0769617 -1.3693776143 0.4252130128
O 1.2189423689 -1.0968470452 -1.4992206295
O 1.8392834016 0.1256923449 1.8362949083
O 1.515617261 1.9722664742 -1.1910617117
O -1.4376805422 1.9478384282 -0.2745124086
O -2.9430316837 -1.7492603163 0.7110249602
H -2.2143808762 -1.2754185027 -1.0832444329
H -3.0082848746 0.087216991 -0.2436585165
H 0.8210533309 -1.9071903283 -1.8405300469
H 1.0531785807 -0.3244170723 2.1710262322
H 1.6879773167 1.298501136 -1.8617430841
H -1.0784545424 2.7298560981 -0.7116214918
H -3.0471725139 -1.3828899278 1.5962997367
*
