  16
        -21.15860846
 C         -2.9597530779        0.3517632409        0.0211331613
 C         -1.9592986119       -0.5200504937       -0.0160463920
 C         -0.5329497283       -0.2164651189       -0.0088462517
 C          0.3795935203       -1.2730847694        0.0001081909
 C          1.7412024432       -1.0395409503        0.0090043322
 C          2.2225565466        0.2588722373        0.0075499353
 C          1.3300976511        1.3186332110       -0.0035113072
 C         -0.0313483757        1.0858394462       -0.0116737646
 H         -3.9858702420        0.0259842777        0.0135213051
 H         -2.8062690110        1.4164191804        0.0626495795
 H         -2.1906716241       -1.5782194418       -0.0521940274
 H          0.0109690620       -2.2896448507        0.0010530508
 H          2.4302134671       -1.8718521655        0.0168863281
 H          3.2865008654        0.4445840000        0.0143793634
 H          1.7001410040        2.3339110378       -0.0062518686
 H         -0.7104123841        1.9243866955       -0.0228483221
