! pbe def2-sv(p) def2/J RI DEFGRID1 loosescf d4 GCP(DFT/SV(P)) printgap
%output
    printlevel normal
end
* xyz 0 1
C -2.2198176456 -1.2121898649 0.0948071194
C -0.8467917918 -0.5933177899 0.3989413238
H -0.7826806187 -0.3565366252 1.4749302025
C -0.6350929222 0.7016208062 -0.3967961091
H -0.6967343899 0.4475308598 -1.4709591401
C 0.7650006405 1.2818543963 -0.1092859293
H 0.6334169642 2.1042221345 0.6114636552
C 1.7138058319 0.2309331887 0.5054987216
H 2.7405937816 0.5185783468 0.2345657267
C 1.4410840421 -1.1362963293 -0.1379757108
H 2.0703652108 -1.907866726 0.3229977222
O 0.114706556 -1.5725151943 0.0657852807
O 1.7748384529 -1.1120518458 -1.4854834091
O 1.5690940153 0.11800194 1.8965050242
O 1.3767189871 1.7541330789 -1.2903836306
O -1.5802052757 1.6909668165 -0.0766527211
O -3.2848767156 -0.4130539325 0.5604620769
H -2.2480093764 -2.2172031472 0.527819235
H -2.3527236094 -1.2993927141 -0.985781696
H 1.5589527125 -0.2465613471 -1.8650563642
H 1.8592578275 0.9377223692 2.3132200814
H 0.8216366086 2.4486011925 -1.6641786825
H -2.452570765 1.2667417243 -0.0218070942
H -3.2797830256 -0.4166080217 1.5247708093
*
