! pbe def2-sv(p) def2/J RI DEFGRID1 loosescf d4 GCP(DFT/SV(P)) printgap
%output
    printlevel normal
end
* xyz 0 1
C -2.1054316198 -1.3644199056 -0.0495357278
C -0.9679928678 -0.5458039943 0.5942127329
H -1.3185409112 -0.1920682771 1.575662793
C -0.6161263612 0.6676761628 -0.2746922982
H -0.5424164053 0.3765970908 -1.3289295448
C 0.7313133855 1.2582598736 0.1579788874
H 0.6862625923 1.5315118518 1.2264535892
C 1.8429218738 0.2138349611 -0.0012331473
H 2.3110442241 0.3694318257 -0.9821658902
C 1.2600872583 -1.219730624 0.0138624599
H 2.0100334109 -1.8991699295 0.4531450704
O 0.1589332199 -1.3694978047 0.8617505285
O 0.9731693553 -1.5807584772 -1.3053471716
O 2.7569254968 0.4042880739 1.0453379644
O 1.0411159802 2.3853570233 -0.6174566614
O -1.6279436469 1.6521837407 -0.2318750269
O -3.3192589519 -0.6660897177 -0.0427504909
H -2.2644630707 -2.2749425742 0.533109219
H -1.8157816883 -1.643379108 -1.0738707999
H 0.6174291378 -2.4782531741 -1.3152659653
H 3.5685018494 -0.0804939266 0.8606897687
H 0.2126100761 2.8452857569 -0.8130725097
H -1.7421634685 1.9454139175 0.6818944718
H -3.1769517062 0.1962310608 -0.4592633429
*
