  17
        -22.49516534
 C         -2.5639633558        0.9671546648        0.0000476007
 C         -1.2338700961        0.2813220135       -0.0000963567
 C         -1.1498544891       -1.1097279626       -0.0000201954
 C          0.1002408389       -1.6988427748        0.0001202077
 N          1.2324885413       -1.0145436825       -0.0000593086
 C          1.1694343392        0.3089432257       -0.0001630549
 C         -0.0443670088        0.9928958643       -0.0000430523
 C          2.4715953107        1.0480549475        0.0000419487
 H         -3.1342625925        0.6808923407        0.8829955335
 H         -2.4467387044        2.0478644707       -0.0057877383
 H         -3.1394189532        0.6716706788       -0.8764033564
 H         -2.0447936324       -1.7135014416       -0.0000752566
 H          0.2103299403       -2.7759334997        0.0000896159
 H         -0.0518751208        2.0735201470       -0.0000328944
 H          2.5422672813        1.6910664179       -0.8757578861
 H          2.5504100803        1.6748906326        0.8868624475
 H          3.2917133205        0.3366236722       -0.0097208175
  17
        -22.49480815
 C         -2.5623697394        0.9717857883        0.0082721466
 C         -1.2376414365        0.2761096272       -0.0084126150
 C         -1.1509070214       -1.1119481568       -0.0055318877
 C          0.1033747010       -1.6976150366        0.0011489620
 N          1.2314032165       -1.0119642867        0.0044792962
 C          1.1665125446        0.3146155172        0.0018420492
 C         -0.0474214513        0.9924010900       -0.0043798275
 C          2.4741068583        1.0435720814       -0.0014692839
 H         -3.3153439437        0.3829244217       -0.5106104848
 H         -2.8926408146        1.1084915142        1.0386124902
 H         -2.4922778911        1.9524656545       -0.4565797172
 H         -2.0426254092       -1.7204372978       -0.0093602537
 H          0.2153795258       -2.7746099176        0.0030761523
 H         -0.0645998956        2.0728326634       -0.0072182569
 H          2.3272316073        2.1148021228        0.1053880902
 H          3.0998682959        0.6791616444        0.8100831246
 H          3.0001597360        0.8460926961       -0.9339833129
