! pbe def2-sv(p) def2/J RI DEFGRID1 loosescf d4 GCP(DFT/SV(P)) printgap
%output
    printlevel normal
end
* xyz 0 1
C -2.4816553427 -0.5037146785 -0.2451039729
C -1.0668608385 -0.1956927879 0.2586704055
H -1.025708963 -0.3556897552 1.3492794577
C -0.6368200607 1.2562199886 -0.048453358
H -1.2354808189 1.6564371589 -0.878731427
C 0.8484199534 1.2975160498 -0.4909382824
H 1.208813613 2.319377574 -0.3277931578
C 1.6519073029 0.324199558 0.380682559
H 2.7000237732 0.3143216687 0.0583588447
C 1.1152016387 -1.1115294103 0.1444923666
H 1.1300544597 -1.6491680041 1.1132671426
O -0.2064187673 -1.1276347693 -0.3703038346
O 1.9232507473 -1.7238933323 -0.7985129006
O 1.6202569763 0.6705654361 1.736874043
O 0.9918273538 1.0344435041 -1.8539436081
O -0.7603631576 2.0748285878 1.0971140849
O -2.9209768219 -1.7643952644 0.1725540471
H -2.4822688699 -0.4286439672 -1.3417710933
H -3.1905747652 0.2198981866 0.1638088721
H 1.575462606 -2.602174688 -0.994904688
H 0.8566201891 1.2452648675 1.8975507288
H 0.927392888 0.0798159498 -1.9945772377
H -1.690112247 2.1686775684 1.3311291156
H -2.2635330051 -2.4113647643 -0.1104201104
*
