! pbe def2-sv(p) def2/J RI DEFGRID1 loosescf d4 GCP(DFT/SV(P)) printgap
%output
    printlevel normal
end
* xyz 0 1
C -2.2755807544 -1.07729768 -0.2229711395
C -0.899444194 -0.5817243501 0.2187074817
H -0.8295197164 -0.6860990397 1.3139330548
C -0.7228995918 0.9133676065 -0.1343893453
H -1.2765442567 1.14619074 -1.0542990697
C 0.7567163679 1.2430754325 -0.3946188004
H 0.9107482406 2.2931015311 -0.1008705347
C 1.6241480006 0.3342725048 0.4832676822
H 2.6922041442 0.5323511756 0.3099810281
C 1.3917857719 -1.1440419978 0.0510706724
H 1.6259240367 -1.7944206206 0.9085536901
O 0.0739432265 -1.3799446873 -0.4027137777
O 2.2446228257 -1.498421177 -0.9799004477
O 1.3737487418 0.5476320013 1.8473015326
O 1.0247437056 1.0603531378 -1.7648070354
O -1.1615651077 1.7175582765 0.9367785052
O -3.2416112067 -0.244418968 0.3873999845
H -2.3968922362 -2.1218622748 0.0855090395
H -2.338732311 -1.0224095708 -1.3167636894
H 1.8557022937 -1.1424883339 -1.7926595469
H 0.5410890163 1.0338923166 1.9435093902
H 1.931440082 1.3377253959 -1.9406468053
H -2.0861461936 1.4864157295 1.1026316528
H -4.1189603871 -0.5587737081 0.1465031838
*
