! pbe def2-sv(p) def2/J RI DEFGRID1 loosescf d4 GCP(DFT/SV(P)) printgap
%output
    printlevel normal
end
* xyz 0 1
C -1.7891116434 -1.0113059054 -0.7140568596
C -1.0376746842 -0.4444252283 0.5126860039
H -1.7167505597 -0.5281181534 1.3756841441
C -0.6902185118 1.0443189133 0.3300851129
H -1.5159332748 1.520561909 -0.218597929
C 0.6043223861 1.2496713966 -0.4758648036
H 0.893190104 2.3027270617 -0.3461309147
C 1.7353814388 0.3631455141 0.0850898534
H 2.5999416898 0.3980855551 -0.5904303806
C 1.2498087526 -1.1042273395 0.141200597
H 1.9780387128 -1.7122425834 0.6901134565
O 0.073658058 -1.2258779114 0.9059991668
O 1.1467511019 -1.6523950026 -1.1314714655
O 2.1857719676 0.8242929752 1.3234899698
O 0.3435076141 0.9617162354 -1.8362638673
O -0.4813284791 1.6854466808 1.5726703771
O -3.1651600874 -0.7271760218 -0.6482858357
H -1.6023495136 -2.0906989052 -0.766137637
H -1.4432630186 -0.5383984199 -1.6343394212
H 0.66835106 -1.0309369552 -1.7025276313
H 1.4121503198 0.9787723152 1.8865479544
H 1.0710414315 1.3001271057 -2.3702386158
H -1.2826465904 1.6169387869 2.1034581788
H -3.5640338022 -1.2478613183 0.0581120125
*
