! pbe def2-sv(p) def2/J RI DEFGRID1 loosescf d4 GCP(DFT/SV(P)) printgap
%output
    printlevel normal
end
* xyz 0 1
C -0.4912151206 0.4435963257 9.48233e-05
C 0.4912025165 -0.4436381351 7.85449e-05
Cl 2.1337485838 0.0413525818 -3.06623e-05
Cl -2.1337402003 -0.0413380341 -3.16738e-05
H -0.33524212 1.5107896206 3.43919e-05
H 0.3350974313 -1.5108031005 9.22863e-05
*
