! pbe def2-sv(p) def2/J RI DEFGRID1 loosescf d4 GCP(DFT/SV(P)) printgap
%output
    printlevel normal
end
* xyz 0 1
C -2.4534607253 -0.8327576963 0.0477467784
C -1.0698465585 -0.5107362316 0.6129874438
H -1.0378100365 -0.8122400559 1.6731694345
C -0.7506765186 1.0089277979 0.5408890069
H -1.6394112395 1.5478066671 0.1968585849
C 0.3902857908 1.2437077745 -0.4641305228
H 0.6832073638 2.3031321376 -0.4142671457
C 1.6122047575 0.3886475315 -0.0442312296
H 2.3432190808 0.3981471293 -0.8642413292
C 1.191438879 -1.0821464635 0.2134048215
H 1.361438708 -1.2997210769 1.2812575571
O -0.1552087175 -1.2910648861 -0.1298971929
O 1.9470270394 -1.9869963931 -0.503177705
O 2.1911280543 0.8748712914 1.1514397994
O 0.0174650895 0.9853296975 -1.7869724384
O -0.4461519736 1.5344779508 1.8043342641
O -2.5279628857 -0.3140827809 -1.2631590795
H -3.2178442405 -0.3802173111 0.6921487672
H -2.5780095392 -1.9217488232 0.0406335764
H 1.6366219114 -1.9735798077 -1.417925121
H 2.6195523115 1.7203373881 0.9744187832
H -0.6929969015 0.3245509661 -1.7889507835
H 0.453549357 1.2554315323 2.0410371607
H -3.3520910628 -0.5971216556 -1.6714941151
*
