! pbe def2-sv(p) def2/J RI DEFGRID1 loosescf d4 GCP(DFT/SV(P)) printgap
%output
    printlevel normal
end
* xyz 0 1
C -2.390847658 -0.9518864789 0.2023518023
C -1.1525287258 -0.2218127476 0.7646848528
H -1.4374026774 0.2215993684 1.7269811293
C -0.7234496775 0.9295238109 -0.1492094762
H -0.750293634 0.620334337 -1.208178408
C 0.7138912302 1.3121224848 0.2099957581
H 0.7903247246 1.4649458625 1.2972417093
C 1.6357566232 0.1573679732 -0.1821637808
H 1.7792962801 0.1806969977 -1.2751495901
C 0.9830188438 -1.2121453518 0.1638434275
H 1.7211504059 -1.8236839211 0.7026896333
O -0.0884634738 -1.1226402302 1.0595791373
O 0.6768008624 -1.9159381107 -1.0000410562
O 2.8644353159 0.3627345337 0.4740769726
O 1.0361023076 2.4998190533 -0.4732777984
O -1.6094535426 1.9958133749 0.0542555897
O -2.0813030504 -1.8166348487 -0.866813275
H -3.0740787161 -0.194452732 -0.1864465587
H -2.8852473382 -1.501579109 1.0089681607
H -0.2116185173 -1.6609839334 -1.3108636546
H 3.4692952709 -0.3530135774 0.2501571486
H 1.9658342292 2.6895855316 -0.3052412381
H -1.1740870605 2.7877166492 -0.2895676273
H -1.7302577103 -2.638169757 -0.4999447897
*
