! pbe def2-sv(p) def2/J RI DEFGRID1 loosescf d4 GCP(DFT/SV(P)) printgap
%output
    printlevel normal
end
* xyz 0 1
C -2.4116530478 -0.6947804156 0.0073582094
C -0.9877220712 -0.2601843082 0.3632164528
H -0.9521044232 0.0409022911 1.4180280649
C -0.514994834 0.9061040273 -0.5035652548
H -0.487072648 0.5696658085 -1.5553774
C 0.9134947744 1.3315276562 -0.094437178
H 0.8408847328 2.1148024835 0.667861764
C 1.6890285614 0.1540481709 0.5284931623
H 2.7535708304 0.2734540278 0.2728830539
C 1.1919654276 -1.1569872864 -0.0973882764
H 1.7402186685 -2.0202475213 0.3231271803
O -0.1502511681 -1.4088281406 0.1751491742
O 1.4425297194 -1.0658176859 -1.477460932
O 1.4967381059 0.1745820883 1.9163673754
O 1.6024863857 1.8893216899 -1.1800664347
O -1.4266606132 1.9645516273 -0.3674233536
O -2.8697718948 -1.715917641 0.8495423193
H -2.4302078915 -1.0205598808 -1.0436212345
H -3.0839680408 0.1544124737 0.1321759108
H 1.0368722279 -1.8253172726 -1.9133511596
H 1.9455273413 -0.5775862927 2.3193405543
H 1.7802875633 1.1804857347 -1.8134332813
H -1.0390817337 2.7449661642 -0.7823735044
H -2.1854688927 -2.395152049 0.879247897
*
