! r2scan-3c def2/J RI DEFGRID2 scfconv6 printgap
%output
    printlevel normal
end
* xyz 0 1
C -1.4391652405 -0.2797018351 1.2601021733
C -0.6396971444 -0.4246898939 -0.0354785132
C -1.5412799465 -0.0753652695 -1.234784334
C 0.6390890114 0.4362457462 -0.0348899312
C 1.4458310823 0.2882746995 1.2552396021
C 1.5340630631 0.0581642992 -1.2160704284
H -1.6766428102 0.7659556725 1.4461519369
H -2.3714131745 -0.8355978455 1.1819931097
H -0.8906543909 -0.6703166144 2.1126021921
H -0.3273632158 -1.4717066113 -0.1176031667
H -1.0955703927 0.6944006383 -1.8590966629
H -1.7263706649 -0.9463472099 -1.8581196905
H -2.5028893133 0.3012288281 -0.8945083808
H 0.3442075517 1.4873185923 -0.1361573801
H 1.6480874028 -0.7612619851 1.4593905286
H 2.3985573493 0.8046132015 1.1559735311
H 0.9218943373 0.715636465 2.1052270209
H 1.8919594295 -0.9630338953 -1.0999601773
H 2.3972879789 0.7184754777 -1.2645757728
H 1.0027236307 0.1257457505 -2.1612289112
*
