! r2scan-3c def2/J RI DEFGRID2 scfconv6 printgap
%output
    printlevel normal
end
* xyz 0 1
C -0.7309397243 -1.2008842251 7.70725e-05
C 0.6523310028 -1.2080555528 7.74365e-05
C 1.3260534905 -0.002006072 7.46993e-05
C 0.6540390223 1.2076976609 7.77582e-05
C -0.7262025913 1.207272693 4.64415e-05
C -1.42666248 0.0031945279 1.35318e-05
O -2.7840666253 0.0534623267 -0.0001083245
F 2.6779737662 -0.0045035519 -0.0001291054
H -1.272991925 -2.1368538579 -3.4855e-05
H 1.2046621474 -2.1341213982 -4.46735e-05
H 1.2110674028 2.1308353778 2.86096e-05
H -1.2827435022 2.1302459423 4.72215e-05
H -3.1484956412 -0.8399053125 -0.0002159586
*
