! pbe def2-sv(p) def2/J RI DEFGRID1 loosescf d4 GCP(DFT/SV(P)) printgap
%output
    printlevel normal
end
* xyz 0 1
C -3.3477536813 -0.0030187947 -0.5255607966
C -2.7112365462 -1.2000928619 -0.2440084027
C -1.445815714 -1.1981976029 0.31380865
C -0.8072587258 0.0026800036 0.6009417976
C -1.4489093144 1.2007061143 0.3086992178
C -2.71426794 1.1969223539 -0.2491350782
C 0.5625617094 0.0056741303 1.1862300781
Br 1.9308913136 -0.0008371427 -0.2431080898
H -4.3350436912 -0.0050795693 -0.9625680892
H -3.199801975 -2.1381399539 -0.4614256576
H -0.9475046302 -2.1333478474 0.5270326453
H -0.952929628 2.1379920291 0.5179265904
H -3.2053518424 2.1326981197 -0.4706271888
H 0.7631206881 -0.8862829337 1.7771959157
H 0.7625815263 0.9028353563 1.7694620028
*
