! pbe def2-sv(p) def2/J RI DEFGRID1 loosescf d4 GCP(DFT/SV(P)) printgap
%output
    printlevel normal
end
* xyz 0 1
C -2.3226971817 -0.9364846555 -0.4972643718
C -1.0183834072 -0.5696209334 0.2260655384
H -1.0805210601 -0.889221819 1.2824381925
C -0.7555438102 0.9590591976 0.2150062029
H -1.5661153753 1.4595473859 -0.3252414249
C 0.5826025965 1.2471909727 -0.4997336012
H 0.8163930801 2.3116747469 -0.3750102611
C 1.6967814439 0.4009207254 0.1572191502
H 2.6082949046 0.4720248476 -0.4495686304
C 1.2813110668 -1.0854332333 0.177440988
H 1.2430167909 -1.4132542152 1.2379826116
O 0.0167209348 -1.2947326005 -0.413189358
O 2.2073504836 -1.810418605 -0.5465975465
O 1.9374294025 0.7986828815 1.4923733181
O 0.5194429619 1.0233580474 -1.877573176
O -0.7709087771 1.4923854975 1.5132433036
O -3.4131318679 -0.1729671914 -0.0692782195
H -2.5075327002 -2.0122382685 -0.3653992928
H -2.2089020501 -0.7336828554 -1.5647523092
H 1.859037982 -2.6982887419 -0.6943548541
H 2.4045068764 1.6419532161 1.4887519647
H 0.3540086518 0.0807016798 -2.0202515298
H 0.0499180283 1.2266934444 1.9585381152
H -3.4733506268 -0.2085480984 0.8924823482
*
