! pbe def2-sv(p) def2/J RI DEFGRID1 loosescf d4 GCP(DFT/SV(P)) printgap
%output
    printlevel normal
end
* xyz 0 1
C -2.1115641839 -0.9189307934 -0.3272041216
C -1.1992774564 -0.3433733221 0.7741639656
H -1.7810959187 -0.3842990386 1.7039418065
C -0.7769098505 1.1266931289 0.587573878
H -1.6443182399 1.7076512847 0.2565666332
C 0.3655869438 1.3115761757 -0.4319416946
H 0.7854397135 2.3128993999 -0.248498338
C 1.501490735 0.2969198483 -0.1446882437
H 2.11533815 0.2019571859 -1.0521874538
C 1.030721287 -1.1187827879 0.2278670174
H 1.8385461816 -1.5700999456 0.8233753451
O -0.0785260237 -1.1782669603 1.067925488
O 0.8373775353 -1.8653754289 -0.9536606265
O 2.2782256681 0.721374956 0.9569599235
O -0.0387478932 1.3255472871 -1.7640090963
O -0.3981460325 1.6656004379 1.8303180163
O -1.5974802383 -0.883686851 -1.6336191706
H -3.0342735185 -0.3346890783 -0.3480537761
H -2.357016291 -1.9523650733 -0.0458535146
H 0.7260832016 -2.7945044539 -0.7171786328
H 2.6549199505 1.5871118648 0.759463819
H -0.6768525739 0.601336198 -1.9235355953
H 0.3852734309 1.1856044535 2.1369698336
H -0.7484533046 -1.3705502664 -1.6423841677
*
