! pbe def2-sv(p) def2/J RI DEFGRID1 loosescf d4 GCP(DFT/SV(P)) printgap
%output
    printlevel normal
end
* xyz 0 1
C 1.8190150943 -0.2655503233 0.1495353401
C 0.5719152768 0.5692158894 -0.1217510433
C -0.6596155102 -0.2794683936 -0.2402254521
O -1.7410237926 -0.0036951764 0.1952367205
H 1.9597971964 -1.010080561 -0.6310207565
H 1.7333357468 -0.7786055198 1.1044483004
H 2.6991011425 0.371475744 0.1802283192
H 0.4213229633 1.3207078815 0.6548919185
H 0.6838672103 1.0904056945 -1.0779738833
H -0.4922518477 -1.2236002654 -0.7981298752
*
