! r2scan-3c def2/J RI DEFGRID2 scfconv6 printgap
%output
    printlevel normal
end
* xyz 0 1
C 3.6886055389 -0.365890961 -0.0456200654
C 2.2154764162 -0.2938480922 0.3465314181
H 2.1421858595 -0.3274356985 1.4394252278
C 1.4326781566 -1.4740501185 -0.2276931642
C -0.0385063916 -1.3874650313 0.1667287399
C -0.6678820037 -0.0910095203 -0.3442228926
H -0.5389512201 -0.0578728682 -1.4352279741
C 0.1053013551 1.1079266177 0.2355842188
H 0.006225429 1.1197449202 1.3256159948
C 1.5877854927 1.0108276702 -0.1398941743
O -0.4366805868 2.3434167509 -0.1814589277
C -2.1806435584 0.0245395461 -0.0661542222
C -2.9862640881 -0.8388561747 -1.03591638
C -2.5641955811 -0.316712805 1.3721112923
H 4.1352053244 -1.289014192 0.3168485312
H 3.7964378817 -0.3356746037 -1.1280199049
H 4.2390187231 0.4714153297 0.3771540664
H 1.5231740903 -1.4720248817 -1.3168737251
H 1.8569074167 -2.4112629537 0.1391314272
H -0.576678445 -2.2442450312 -0.2418774347
H -0.1128563856 -1.4262555881 1.2542964069
H 1.6803234461 1.0713992351 -1.2292406428
H 2.1156220507 1.8665292233 0.286798981
H -0.3556298306 2.399002217 -1.1408700769
H -2.4485412215 1.0729870671 -0.2412972773
H -2.7645305455 -1.8939501655 -0.8917449369
H -2.7627392734 -0.5786522205 -2.0685781757
H -4.0514134707 -0.692656921 -0.8715449688
H -1.9751857516 0.2601201116 2.0799067036
H -2.4225095152 -1.3755292131 1.5746119785
H -3.6132126588 -0.0797566266 1.5362449235
*
