! r2scan-3c def2/J RI DEFGRID2 scfconv6 printgap
%output
    printlevel normal
end
* xyz 0 1
C 2.7557280012 -0.6387325632 0.4612826919
C 1.9497298879 0.329966936 -0.3965394064
C 0.4718605427 0.1866399485 -0.1853607736
C -0.4035718404 1.2648877967 -0.3372094338
N -1.7085914143 1.1412631259 -0.1757747564
C -2.1681916485 -0.0601852013 0.1451361547
C -1.3083250932 -1.1367423533 0.3040908136
N -0.0016177558 -1.0117625797 0.1378703488
H 2.4510094065 -1.6596411485 0.252727895
H 2.5858787439 -0.4400603982 1.5165917509
H 3.8173611628 -0.5333873337 0.2526687848
H 2.1579008162 0.1345916032 -1.4534307776
H 2.2422591903 1.3619022776 -0.1899019514
H -0.0462788047 2.2534576638 -0.5950929435
H -3.2377241148 -0.1474562891 0.2752546614
H -1.6626783915 -2.1235826233 0.5704213035
*
