! pbe def2-sv(p) def2/J RI DEFGRID1 loosescf d4 GCP(DFT/SV(P)) printgap
%output
    printlevel normal
end
* xyz 0 1
C -3.2077271608 0.2432574895 0.8797412754
O -1.7979849833 0.2763981165 0.7158013239
C -1.3302830355 -0.184849626 -0.452453648
O -2.0435861996 -0.6067208844 -1.3250741622
C 0.1798257983 -0.1319880534 -0.5187919909
C 0.7771143262 -1.0721062627 0.5336160627
C 2.2889284927 -1.2095129168 0.3201005826
C 2.9012846912 0.0872045422 -0.2234462594
C 2.1202611811 1.2934627215 0.2848802818
C 0.7030110995 1.2986211146 -0.2996656112
H -3.4092966063 0.6420196041 1.8706598212
H -3.5750516218 -0.7815383 0.7956827036
H -3.6929975199 0.8521776323 0.1141993416
H 0.4609237665 -0.4918842135 -1.5125493273
H 0.563213023 -0.6630160223 1.5217618887
H 0.3034232355 -2.0535859978 0.4704889344
H 2.7560816612 -1.4707553408 1.2713078754
H 2.4909371221 -2.0234611533 -0.3781121327
H 3.9467163026 0.1585002617 0.0806549607
H 2.8770490332 0.0861514328 -1.3146015035
H 2.0780860367 1.2536822118 1.3744946489
H 2.6305813027 2.2177683889 0.0096452783
H 0.0347410871 1.829783191 0.3793057707
H 0.696216952 1.8255780962 -1.2555469076
*
